/media/chris/experiments/cd1a-new-docking/inputs/ligands/7ryn_ligand.pdb
 OpenBabel07032312553D

153153  0  0  1  0  0  0  0  0999 V2000
  -33.0340   65.1330   62.2120 N   0  0  0  0  0  0  0  0  0  0  0  0
  -32.0220   67.3480   62.3220 C   0  0  0  0  0  0  0  0  0  0  0  0
  -31.4051   67.0024   63.5673 O   0  0  0  0  0  0  0  0  0  0  0  0
  -32.1830   66.0840   61.5030 C   0  0  1  0  0  0  0  0  0  0  0  0
  -29.9992   66.3678   60.5104 O   0  0  0  0  0  0  0  0  0  0  0  0
  -30.8310   65.4230   61.1900 C   0  0  2  0  0  0  0  0  0  0  0  0
  -32.4714   65.8137   64.2827 O   0  0  0  0  0  0  0  0  0  0  0  0
  -31.0055   64.1786   60.3744 C   0  0  0  0  0  0  0  0  0  0  0  0
  -29.0472   68.5087   63.4560 O   0  0  0  0  0  0  0  0  0  0  0  0
  -30.0261   63.3955   59.9676 C   0  0  0  0  0  0  0  0  0  0  0  0
  -29.4663   71.3004   63.7442 O   0  0  0  0  0  0  0  0  0  0  0  0
  -30.2340   62.1517   59.1673 C   0  0  0  0  0  0  0  0  0  0  0  0
  -32.1950   71.4092   63.9043 O   0  0  0  0  0  0  0  0  0  0  0  0
  -29.0407   61.8830   58.2481 C   0  0  0  0  0  0  0  0  0  0  0  0
  -32.4523   68.6756   64.7639 O   0  0  0  0  0  0  0  0  0  0  0  0
  -29.1857   60.6393   57.3862 C   0  0  0  0  0  0  0  0  0  0  0  0
  -34.4615   70.6093   64.8705 O   0  0  0  0  0  0  0  0  0  0  0  0
  -27.9946   60.3613   56.4852 C   0  0  0  0  0  0  0  0  0  0  0  0
  -30.3325   73.3127   64.7477 O   0  0  0  0  0  0  0  0  0  0  0  0
  -28.1538   59.1245   55.6131 C   0  0  0  0  0  0  0  0  0  0  0  0
  -28.1465   73.3414   63.5084 O   0  5  0  0  0  0  0  0  0  0  0  0
  -28.3667   57.8428   56.4038 C   0  0  0  0  0  0  0  0  0  0  0  0
  -28.3751   72.2810   65.6203 O   0  0  0  0  0  0  0  0  0  0  0  0
  -28.5089   56.6049   55.5359 C   0  0  0  0  0  0  0  0  0  0  0  0
  -29.6665   56.6660   54.5567 C   0  0  0  0  0  0  0  0  0  0  0  0
  -29.5693   57.8077   53.5594 C   0  0  0  0  0  0  0  0  0  0  0  0
  -30.7448   57.8604   52.6013 C   0  0  0  0  0  0  0  0  0  0  0  0
  -32.0907   58.0587   53.2717 C   0  0  0  0  0  0  0  0  0  0  0  0
  -32.1695   59.3594   54.0467 C   0  0  0  0  0  0  0  0  0  0  0  0
  -31.9692   60.5740   53.1641 C   0  0  0  0  0  0  0  0  0  0  0  0
  -33.1122   65.0716   63.5440 C   0  0  0  0  0  0  0  0  0  0  0  0
  -34.0520   64.0283   64.0950 C   0  0  0  0  0  0  0  0  0  0  0  0
  -35.2217   63.7435   63.1616 C   0  0  0  0  0  0  0  0  0  0  0  0
  -36.0602   64.9795   62.8779 C   0  0  0  0  0  0  0  0  0  0  0  0
  -35.2911   66.1048   62.2061 C   0  0  0  0  0  0  0  0  0  0  0  0
  -36.1272   67.3473   61.9383 C   0  0  0  0  0  0  0  0  0  0  0  0
  -37.3356   67.1002   61.0441 C   0  0  0  0  0  0  0  0  0  0  0  0
  -36.9824   66.5529   59.6671 C   0  0  0  0  0  0  0  0  0  0  0  0
  -38.1817   66.3158   58.7528 C   0  0  0  0  0  0  0  0  0  0  0  0
  -37.8161   65.7510   57.3811 C   0  0  0  0  0  0  0  0  0  0  0  0
  -37.1152   64.3931   57.4174 C   0  0  0  0  0  0  0  0  0  0  0  0
  -36.7464   63.8610   56.0324 C   0  0  0  0  0  0  0  0  0  0  0  0
  -35.7875   64.7440   55.2341 C   0  0  0  0  0  0  0  0  0  0  0  0
  -34.4221   64.9698   55.8888 C   0  0  0  0  0  0  0  0  0  0  0  0
  -33.5243   65.8560   55.0748 C   0  0  0  0  0  0  0  0  0  0  0  0
  -32.3431   65.5262   54.5828 C   0  0  0  0  0  0  0  0  0  0  0  0
  -31.6632   64.1995   54.7362 C   0  0  0  0  0  0  0  0  0  0  0  0
  -30.2903   64.1311   54.0639 C   0  0  0  0  0  0  0  0  0  0  0  0
  -30.3396   64.3984   52.5655 C   0  0  0  0  0  0  0  0  0  0  0  0
  -28.9751   64.3139   51.8907 C   0  0  0  0  0  0  0  0  0  0  0  0
  -28.9933   64.5941   50.3924 C   0  0  0  0  0  0  0  0  0  0  0  0
  -27.6257   64.4888   49.7325 C   0  0  0  0  0  0  0  0  0  0  0  0
  -26.5849   65.4395   50.3023 C   0  0  0  0  0  0  0  0  0  0  0  0
  -26.9870   66.8953   50.1804 C   0  0  0  0  0  0  0  0  0  0  0  0
  -31.2104   68.0828   64.4327 C   0  0  2  0  0  0  0  0  0  0  0  0
  -30.3138   69.0941   63.7304 C   0  0  1  0  0  0  0  0  0  0  0  0
  -30.1449   70.3308   64.6038 C   0  0  2  0  0  0  0  0  0  0  0  0
  -31.4954   70.8877   65.0296 C   0  0  2  0  0  0  0  0  0  0  0  0
  -32.3266   69.7807   65.6732 C   0  0  1  0  0  0  0  0  0  0  0  0
  -33.7288   70.2187   66.0260 C   0  0  0  0  0  0  0  0  0  0  0  0
  -29.1081   72.7269   64.3444 S   0  0  0  0  0  0  0  0  0  0  0  0
  -33.5772   64.5058   61.6821 H   0  0  0  0  0  0  0  0  0  0  0  0
  -31.4053   68.0450   61.7940 H   0  0  0  0  0  0  0  0  0  0  0  0
  -32.9770   67.7979   62.4965 H   0  0  0  0  0  0  0  0  0  0  0  0
  -32.6374   66.3625   60.5752 H   0  0  0  0  0  0  0  0  0  0  0  0
  -29.9008   67.1635   61.0564 H   0  0  0  0  0  0  0  0  0  0  0  0
  -30.3647   65.1308   62.1077 H   0  0  0  0  0  0  0  0  0  0  0  0
  -31.9673   63.9138   60.1104 H   0  0  0  0  0  0  0  0  0  0  0  0
  -29.1677   67.7231   62.8999 H   0  0  0  0  0  0  0  0  0  0  0  0
  -29.0594   63.6571   60.2167 H   0  0  0  0  0  0  0  0  0  0  0  0
  -31.1160   62.2626   58.5717 H   0  0  0  0  0  0  0  0  0  0  0  0
  -30.3368   61.3269   59.8411 H   0  0  0  0  0  0  0  0  0  0  0  0
  -31.6684   72.1129   63.4939 H   0  0  0  0  0  0  0  0  0  0  0  0
  -28.1675   61.7700   58.8562 H   0  0  0  0  0  0  0  0  0  0  0  0
  -28.9747   62.7151   57.5786 H   0  0  0  0  0  0  0  0  0  0  0  0
  -30.0520   60.7579   56.7696 H   0  0  0  0  0  0  0  0  0  0  0  0
  -29.2633   59.8090   58.0567 H   0  0  0  0  0  0  0  0  0  0  0  0
  -35.3545   70.8838   65.1313 H   0  0  0  0  0  0  0  0  0  0  0  0
  -27.1299   60.2295   57.1015 H   0  0  0  0  0  0  0  0  0  0  0  0
  -27.9052   61.1974   55.8234 H   0  0  0  0  0  0  0  0  0  0  0  0
  -30.8236   73.6070   63.9646 H   0  0  0  0  0  0  0  0  0  0  0  0
  -27.2701   59.0129   55.0203 H   0  0  0  0  0  0  0  0  0  0  0  0
  -29.0294   59.2730   55.0162 H   0  0  0  0  0  0  0  0  0  0  0  0
  -29.2573   57.9501   56.9872 H   0  0  0  0  0  0  0  0  0  0  0  0
  -27.4958   57.7012   57.0091 H   0  0  0  0  0  0  0  0  0  0  0  0
  -29.0043   71.8529   66.2218 H   0  0  0  0  0  0  0  0  0  0  0  0
  -28.6545   55.7601   56.1762 H   0  0  0  0  0  0  0  0  0  0  0  0
  -27.6146   56.5316   54.9530 H   0  0  0  0  0  0  0  0  0  0  0  0
  -30.5730   56.7811   55.1134 H   0  0  0  0  0  0  0  0  0  0  0  0
  -29.6439   55.7575   53.9919 H   0  0  0  0  0  0  0  0  0  0  0  0
  -28.6710   57.6880   52.9906 H   0  0  0  0  0  0  0  0  0  0  0  0
  -29.5704   58.7207   54.1174 H   0  0  0  0  0  0  0  0  0  0  0  0
  -30.7744   56.9397   52.0569 H   0  0  0  0  0  0  0  0  0  0  0  0
  -30.5883   58.7118   51.9724 H   0  0  0  0  0  0  0  0  0  0  0  0
  -32.2603   57.2464   53.9471 H   0  0  0  0  0  0  0  0  0  0  0  0
  -32.8339   58.0940   52.5027 H   0  0  0  0  0  0  0  0  0  0  0  0
  -31.4114   59.3552   54.8019 H   0  0  0  0  0  0  0  0  0  0  0  0
  -33.1489   59.4251   54.4727 H   0  0  0  0  0  0  0  0  0  0  0  0
  -30.9954   60.5370   52.7222 H   0  0  0  0  0  0  0  0  0  0  0  0
  -32.0598   61.4622   53.7538 H   0  0  0  0  0  0  0  0  0  0  0  0
  -32.7108   60.5806   52.3929 H   0  0  0  0  0  0  0  0  0  0  0  0
  -34.4370   64.3740   65.0315 H   0  0  0  0  0  0  0  0  0  0  0  0
  -33.4981   63.1198   64.2077 H   0  0  0  0  0  0  0  0  0  0  0  0
  -35.8470   63.0017   63.6129 H   0  0  0  0  0  0  0  0  0  0  0  0
  -34.8173   63.4064   62.2300 H   0  0  0  0  0  0  0  0  0  0  0  0
  -36.4479   65.3438   63.8062 H   0  0  0  0  0  0  0  0  0  0  0  0
  -36.8316   64.6821   62.1987 H   0  0  0  0  0  0  0  0  0  0  0  0
  -34.9138   65.7446   61.2719 H   0  0  0  0  0  0  0  0  0  0  0  0
  -34.5112   66.3939   62.8794 H   0  0  0  0  0  0  0  0  0  0  0  0
  -35.5033   68.0774   61.4666 H   0  0  0  0  0  0  0  0  0  0  0  0
  -36.5042   67.6764   62.8840 H   0  0  0  0  0  0  0  0  0  0  0  0
  -37.8546   68.0270   60.9154 H   0  0  0  0  0  0  0  0  0  0  0  0
  -37.9345   66.3580   61.5292 H   0  0  0  0  0  0  0  0  0  0  0  0
  -36.4732   65.6210   59.7985 H   0  0  0  0  0  0  0  0  0  0  0  0
  -36.3787   67.2964   59.1901 H   0  0  0  0  0  0  0  0  0  0  0  0
  -38.6847   67.2492   58.6090 H   0  0  0  0  0  0  0  0  0  0  0  0
  -38.7978   65.5852   59.2339 H   0  0  0  0  0  0  0  0  0  0  0  0
  -37.1665   66.4488   56.8953 H   0  0  0  0  0  0  0  0  0  0  0  0
  -38.7383   65.6020   56.8593 H   0  0  0  0  0  0  0  0  0  0  0  0
  -37.7673   63.6877   57.8888 H   0  0  0  0  0  0  0  0  0  0  0  0
  -36.2013   64.5245   57.9581 H   0  0  0  0  0  0  0  0  0  0  0  0
  -37.6485   63.7549   55.4668 H   0  0  0  0  0  0  0  0  0  0  0  0
  -36.2348   62.9354   56.1948 H   0  0  0  0  0  0  0  0  0  0  0  0
  -36.2516   65.6981   55.0957 H   0  0  0  0  0  0  0  0  0  0  0  0
  -35.5982   64.2277   54.3162 H   0  0  0  0  0  0  0  0  0  0  0  0
  -33.9428   64.0215   56.0152 H   0  0  0  0  0  0  0  0  0  0  0  0
  -34.5917   65.4577   56.8259 H   0  0  0  0  0  0  0  0  0  0  0  0
  -33.8612   66.8121   54.8813 H   0  0  0  0  0  0  0  0  0  0  0  0
  -31.8424   66.2493   54.0428 H   0  0  0  0  0  0  0  0  0  0  0  0
  -32.2890   63.4470   54.3037 H   0  0  0  0  0  0  0  0  0  0  0  0
  -31.5067   64.0473   55.7837 H   0  0  0  0  0  0  0  0  0  0  0  0
  -29.8832   63.1543   54.2215 H   0  0  0  0  0  0  0  0  0  0  0  0
  -29.6841   64.8960   54.5026 H   0  0  0  0  0  0  0  0  0  0  0  0
  -30.7354   65.3800   52.4087 H   0  0  0  0  0  0  0  0  0  0  0  0
  -30.9554   63.6399   52.1292 H   0  0  0  0  0  0  0  0  0  0  0  0
  -28.5878   63.3280   52.0419 H   0  0  0  0  0  0  0  0  0  0  0  0
  -28.3677   65.0743   52.3355 H   0  0  0  0  0  0  0  0  0  0  0  0
  -29.3670   65.5849   50.2387 H   0  0  0  0  0  0  0  0  0  0  0  0
  -29.6152   63.8483   49.9429 H   0  0  0  0  0  0  0  0  0  0  0  0
  -27.7388   64.7007   48.6898 H   0  0  0  0  0  0  0  0  0  0  0  0
  -27.2702   63.4966   49.9172 H   0  0  0  0  0  0  0  0  0  0  0  0
  -25.6649   65.2941   49.7756 H   0  0  0  0  0  0  0  0  0  0  0  0
  -26.4857   65.2198   51.3448 H   0  0  0  0  0  0  0  0  0  0  0  0
  -27.0954   67.1500   49.1468 H   0  0  0  0  0  0  0  0  0  0  0  0
  -26.2326   67.5119   50.6225 H   0  0  0  0  0  0  0  0  0  0  0  0
  -27.9171   67.0519   50.6858 H   0  0  0  0  0  0  0  0  0  0  0  0
  -30.7515   67.7503   65.3403 H   0  0  0  0  0  0  0  0  0  0  0  0
  -30.7674   69.3839   62.8057 H   0  0  0  0  0  0  0  0  0  0  0  0
  -29.6019   70.1103   65.4990 H   0  0  0  0  0  0  0  0  0  0  0  0
  -31.3342   71.6761   65.7349 H   0  0  0  0  0  0  0  0  0  0  0  0
  -31.8112   69.5117   66.5715 H   0  0  0  0  0  0  0  0  0  0  0  0
  -34.2372   69.4060   66.5014 H   0  0  0  0  0  0  0  0  0  0  0  0
  -33.6613   71.0623   66.6807 H   0  0  0  0  0  0  0  0  0  0  0  0
  1  4  1  0  0  0  0
  1 31  1  0  0  0  0
  1 62  1  0  0  0  0
  2  3  1  0  0  0  0
  2  4  1  0  0  0  0
  2 63  1  0  0  0  0
  2 64  1  0  0  0  0
  3 55  1  0  0  0  0
  4  6  1  0  0  0  0
  4 65  1  6  0  0  0
  5  6  1  0  0  0  0
  5 66  1  0  0  0  0
  6  8  1  0  0  0  0
  6 67  1  1  0  0  0
  7 31  2  0  0  0  0
  8 10  2  0  0  0  0
  8 68  1  0  0  0  0
  9 56  1  0  0  0  0
  9 69  1  0  0  0  0
 10 12  1  0  0  0  0
 10 70  1  0  0  0  0
 11 57  1  0  0  0  0
 11 61  1  0  0  0  0
 12 14  1  0  0  0  0
 12 71  1  0  0  0  0
 12 72  1  0  0  0  0
 13 58  1  0  0  0  0
 13 73  1  0  0  0  0
 14 16  1  0  0  0  0
 14 74  1  0  0  0  0
 14 75  1  0  0  0  0
 15 55  1  0  0  0  0
 15 59  1  0  0  0  0
 16 18  1  0  0  0  0
 16 76  1  0  0  0  0
 16 77  1  0  0  0  0
 17 60  1  0  0  0  0
 17 78  1  0  0  0  0
 18 20  1  0  0  0  0
 18 79  1  0  0  0  0
 18 80  1  0  0  0  0
 19 61  1  0  0  0  0
 19 81  1  0  0  0  0
 20 22  1  0  0  0  0
 20 82  1  0  0  0  0
 20 83  1  0  0  0  0
 21 61  1  0  0  0  0
 22 24  1  0  0  0  0
 22 84  1  0  0  0  0
 22 85  1  0  0  0  0
 23 61  1  0  0  0  0
 23 86  1  0  0  0  0
 24 25  1  0  0  0  0
 24 87  1  0  0  0  0
 24 88  1  0  0  0  0
 25 26  1  0  0  0  0
 25 89  1  0  0  0  0
 25 90  1  0  0  0  0
 26 27  1  0  0  0  0
 26 91  1  0  0  0  0
 26 92  1  0  0  0  0
 27 28  1  0  0  0  0
 27 93  1  0  0  0  0
 27 94  1  0  0  0  0
 28 29  1  0  0  0  0
 28 95  1  0  0  0  0
 28 96  1  0  0  0  0
 29 30  1  0  0  0  0
 29 97  1  0  0  0  0
 29 98  1  0  0  0  0
 30 99  1  0  0  0  0
 30100  1  0  0  0  0
 30101  1  0  0  0  0
 31 32  1  0  0  0  0
 32 33  1  0  0  0  0
 32102  1  0  0  0  0
 32103  1  0  0  0  0
 33 34  1  0  0  0  0
 33104  1  0  0  0  0
 33105  1  0  0  0  0
 34 35  1  0  0  0  0
 34106  1  0  0  0  0
 34107  1  0  0  0  0
 35 36  1  0  0  0  0
 35108  1  0  0  0  0
 35109  1  0  0  0  0
 36 37  1  0  0  0  0
 36110  1  0  0  0  0
 36111  1  0  0  0  0
 37 38  1  0  0  0  0
 37112  1  0  0  0  0
 37113  1  0  0  0  0
 38 39  1  0  0  0  0
 38114  1  0  0  0  0
 38115  1  0  0  0  0
 39 40  1  0  0  0  0
 39116  1  0  0  0  0
 39117  1  0  0  0  0
 40 41  1  0  0  0  0
 40118  1  0  0  0  0
 40119  1  0  0  0  0
 41 42  1  0  0  0  0
 41120  1  0  0  0  0
 41121  1  0  0  0  0
 42 43  1  0  0  0  0
 42122  1  0  0  0  0
 42123  1  0  0  0  0
 43 44  1  0  0  0  0
 43124  1  0  0  0  0
 43125  1  0  0  0  0
 44 45  1  0  0  0  0
 44126  1  0  0  0  0
 44127  1  0  0  0  0
 45 46  2  0  0  0  0
 45128  1  0  0  0  0
 46 47  1  0  0  0  0
 46129  1  0  0  0  0
 47 48  1  0  0  0  0
 47130  1  0  0  0  0
 47131  1  0  0  0  0
 48 49  1  0  0  0  0
 48132  1  0  0  0  0
 48133  1  0  0  0  0
 49 50  1  0  0  0  0
 49134  1  0  0  0  0
 49135  1  0  0  0  0
 50 51  1  0  0  0  0
 50136  1  0  0  0  0
 50137  1  0  0  0  0
 51 52  1  0  0  0  0
 51138  1  0  0  0  0
 51139  1  0  0  0  0
 52 53  1  0  0  0  0
 52140  1  0  0  0  0
 52141  1  0  0  0  0
 53 54  1  0  0  0  0
 53142  1  0  0  0  0
 53143  1  0  0  0  0
 54144  1  0  0  0  0
 54145  1  0  0  0  0
 54146  1  0  0  0  0
 55 56  1  0  0  0  0
 55147  1  1  0  0  0
 56 57  1  0  0  0  0
 56148  1  6  0  0  0
 57 58  1  0  0  0  0
 57149  1  1  0  0  0
 58 59  1  0  0  0  0
 58150  1  1  0  0  0
 59 60  1  0  0  0  0
 59151  1  1  0  0  0
 60152  1  0  0  0  0
 60153  1  0  0  0  0
M  CHG  1  21  -1
M  END
$$$$