/media/chris/experiments/cd1a-new-docking/inputs/ligands/7ryn_ligand.pdb
 OpenBabel07032312553D

153153  0  0  1  0  0  0  0  0999 V2000
  -33.0340   65.1330   62.2120 N   0  0  0  0  0  0  0  0  0  0  0  0
  -32.0220   67.3480   62.3220 C   0  0  0  0  0  0  0  0  0  0  0  0
  -31.1969   68.2589   61.5870 O   0  0  0  0  0  0  0  0  0  0  0  0
  -32.1830   66.0840   61.5030 C   0  0  1  0  0  0  0  0  0  0  0  0
  -30.2154   65.0225   62.4176 O   0  0  0  0  0  0  0  0  0  0  0  0
  -30.8310   65.4230   61.1900 C   0  0  2  0  0  0  0  0  0  0  0  0
  -34.6226   65.0093   60.6217 O   0  0  0  0  0  0  0  0  0  0  0  0
  -29.9369   66.3439   60.4177 C   0  0  0  0  0  0  0  0  0  0  0  0
  -30.5919   70.7636   60.4909 O   0  0  0  0  0  0  0  0  0  0  0  0
  -28.6200   66.3494   60.4787 C   0  0  0  0  0  0  0  0  0  0  0  0
  -30.1038   70.6942   57.6964 O   0  0  0  0  0  0  0  0  0  0  0  0
  -27.7547   67.2714   59.6837 C   0  0  0  0  0  0  0  0  0  0  0  0
  -30.3176   68.0143   57.1911 O   0  0  0  0  0  0  0  0  0  0  0  0
  -28.4200   67.6432   58.3570 C   0  0  0  0  0  0  0  0  0  0  0  0
  -31.9134   67.4984   59.5287 O   0  0  0  0  0  0  0  0  0  0  0  0
  -28.7306   66.4550   57.4612 C   0  0  0  0  0  0  0  0  0  0  0  0
  -33.2824   66.6972   56.2473 O   0  0  0  0  0  0  0  0  0  0  0  0
  -27.5144   65.6332   57.0696 C   0  0  0  0  0  0  0  0  0  0  0  0
  -29.0479   71.8916   55.8913 O   0  0  0  0  0  0  0  0  0  0  0  0
  -27.8305   64.4554   56.1592 C   0  0  0  0  0  0  0  0  0  0  0  0
  -31.5517   71.8438   56.1010 O   0  5  0  0  0  0  0  0  0  0  0  0
  -28.8091   63.4609   56.7646 C   0  0  0  0  0  0  0  0  0  0  0  0
  -30.3125   69.9256   55.4519 O   0  0  0  0  0  0  0  0  0  0  0  0
  -28.3296   62.8469   58.0681 C   0  0  0  0  0  0  0  0  0  0  0  0
  -29.2936   61.8409   58.6690 C   0  0  0  0  0  0  0  0  0  0  0  0
  -30.6655   62.4138   58.9811 C   0  0  0  0  0  0  0  0  0  0  0  0
  -31.6077   61.3959   59.5966 C   0  0  0  0  0  0  0  0  0  0  0  0
  -31.8656   60.1776   58.7308 C   0  0  0  0  0  0  0  0  0  0  0  0
  -30.6007   59.3972   58.4316 C   0  0  0  0  0  0  0  0  0  0  0  0
  -29.9315   58.8736   59.6856 C   0  0  0  0  0  0  0  0  0  0  0  0
  -34.1853   64.6703   61.7176 C   0  0  0  0  0  0  0  0  0  0  0  0
  -34.9232   63.6880   62.5927 C   0  0  0  0  0  0  0  0  0  0  0  0
  -35.1194   62.3363   61.9181 C   0  0  0  0  0  0  0  0  0  0  0  0
  -33.8042   61.6607   61.5647 C   0  0  0  0  0  0  0  0  0  0  0  0
  -32.9178   61.3719   62.7648 C   0  0  0  0  0  0  0  0  0  0  0  0
  -33.5517   60.4416   63.7881 C   0  0  0  0  0  0  0  0  0  0  0  0
  -33.8983   59.0627   63.2412 C   0  0  0  0  0  0  0  0  0  0  0  0
  -34.5483   58.1391   64.2634 C   0  0  0  0  0  0  0  0  0  0  0  0
  -35.8711   58.6503   64.8286 C   0  0  0  0  0  0  0  0  0  0  0  0
  -36.5044   57.7235   65.8650 C   0  0  0  0  0  0  0  0  0  0  0  0
  -36.8174   56.3169   65.3552 C   0  0  0  0  0  0  0  0  0  0  0  0
  -37.7793   56.3000   64.1669 C   0  0  0  0  0  0  0  0  0  0  0  0
  -38.1306   54.9094   63.6384 C   0  0  0  0  0  0  0  0  0  0  0  0
  -36.9359   54.0810   63.1582 C   0  0  0  0  0  0  0  0  0  0  0  0
  -37.3347   52.7319   62.6337 C   0  0  0  0  0  0  0  0  0  0  0  0
  -36.6037   51.6321   62.6785 C   0  0  0  0  0  0  0  0  0  0  0  0
  -35.2300   51.5097   63.2649 C   0  0  0  0  0  0  0  0  0  0  0  0
  -34.1069   51.7723   62.2593 C   0  0  0  0  0  0  0  0  0  0  0  0
  -32.7149   51.6289   62.8602 C   0  0  0  0  0  0  0  0  0  0  0  0
  -31.5945   51.9068   61.8643 C   0  0  0  0  0  0  0  0  0  0  0  0
  -31.6047   53.3145   61.2794 C   0  0  0  0  0  0  0  0  0  0  0  0
  -31.4494   54.4126   62.3221 C   0  0  0  0  0  0  0  0  0  0  0  0
  -31.4753   55.8214   61.7508 C   0  0  0  0  0  0  0  0  0  0  0  0
  -32.7755   56.1469   61.0439 C   0  0  0  0  0  0  0  0  0  0  0  0
  -31.7197   68.6370   60.3470 C   0  0  2  0  0  0  0  0  0  0  0  0
  -30.7339   69.5958   59.6920 C   0  0  1  0  0  0  0  0  0  0  0  0
  -31.2217   69.9672   58.2973 C   0  0  2  0  0  0  0  0  0  0  0  0
  -31.5198   68.7232   57.4733 C   0  0  2  0  0  0  0  0  0  0  0  0
  -32.4738   67.8141   58.2442 C   0  0  1  0  0  0  0  0  0  0  0  0
  -32.7367   66.5000   57.5466 C   0  0  0  0  0  0  0  0  0  0  0  0
  -30.2702   71.2568   56.2201 S   0  0  0  0  0  0  0  0  0  0  0  0
  -32.7449   64.8171   63.0985 H   0  0  0  0  0  0  0  0  0  0  0  0
  -32.9806   67.7896   62.4978 H   0  0  0  0  0  0  0  0  0  0  0  0
  -31.5704   67.1208   63.2650 H   0  0  0  0  0  0  0  0  0  0  0  0
  -32.6374   66.3625   60.5752 H   0  0  0  0  0  0  0  0  0  0  0  0
  -30.8116   64.4280   62.8994 H   0  0  0  0  0  0  0  0  0  0  0  0
  -30.9971   64.5628   60.5757 H   0  0  0  0  0  0  0  0  0  0  0  0
  -30.3869   67.0273   59.7888 H   0  0  0  0  0  0  0  0  0  0  0  0
  -30.2812   70.5145   61.3754 H   0  0  0  0  0  0  0  0  0  0  0  0
  -28.1601   65.6775   61.1128 H   0  0  0  0  0  0  0  0  0  0  0  0
  -26.8210   66.7886   59.4834 H   0  0  0  0  0  0  0  0  0  0  0  0
  -27.6011   68.1663   60.2497 H   0  0  0  0  0  0  0  0  0  0  0  0
  -29.7100   68.5903   56.7012 H   0  0  0  0  0  0  0  0  0  0  0  0
  -27.7647   68.3016   57.8259 H   0  0  0  0  0  0  0  0  0  0  0  0
  -29.3574   68.0983   58.6000 H   0  0  0  0  0  0  0  0  0  0  0  0
  -29.1902   66.8206   56.5668 H   0  0  0  0  0  0  0  0  0  0  0  0
  -29.3708   65.8069   58.0225 H   0  0  0  0  0  0  0  0  0  0  0  0
  -33.4388   65.8364   55.8283 H   0  0  0  0  0  0  0  0  0  0  0  0
  -27.0613   65.2561   57.9626 H   0  0  0  0  0  0  0  0  0  0  0  0
  -26.8651   66.2830   56.5210 H   0  0  0  0  0  0  0  0  0  0  0  0
  -28.9870   72.7385   56.3603 H   0  0  0  0  0  0  0  0  0  0  0  0
  -26.9174   63.9416   55.9420 H   0  0  0  0  0  0  0  0  0  0  0  0
  -28.2930   64.8543   55.2806 H   0  0  0  0  0  0  0  0  0  0  0  0
  -28.9691   62.6726   56.0589 H   0  0  0  0  0  0  0  0  0  0  0  0
  -29.7062   64.0007   56.9852 H   0  0  0  0  0  0  0  0  0  0  0  0
  -29.4473   69.4909   55.5105 H   0  0  0  0  0  0  0  0  0  0  0  0
  -28.1811   63.6350   58.7764 H   0  0  0  0  0  0  0  0  0  0  0  0
  -27.4274   62.3161   57.8463 H   0  0  0  0  0  0  0  0  0  0  0  0
  -28.8691   61.4690   59.5781 H   0  0  0  0  0  0  0  0  0  0  0  0
  -29.4367   61.0728   57.9380 H   0  0  0  0  0  0  0  0  0  0  0  0
  -31.0995   62.7737   58.0717 H   0  0  0  0  0  0  0  0  0  0  0  0
  -30.5296   63.1975   59.6967 H   0  0  0  0  0  0  0  0  0  0  0  0
  -32.5445   61.8776   59.7843 H   0  0  0  0  0  0  0  0  0  0  0  0
  -31.1346   61.0421   60.4887 H   0  0  0  0  0  0  0  0  0  0  0  0
  -32.2967   60.4994   57.8059 H   0  0  0  0  0  0  0  0  0  0  0  0
  -32.5259   59.5307   59.2698 H   0  0  0  0  0  0  0  0  0  0  0  0
  -29.9149   60.0389   57.9190 H   0  0  0  0  0  0  0  0  0  0  0  0
  -30.8734   58.5537   57.8323 H   0  0  0  0  0  0  0  0  0  0  0  0
  -29.6463   59.6962   60.3076 H   0  0  0  0  0  0  0  0  0  0  0  0
  -29.0619   58.3109   59.4173 H   0  0  0  0  0  0  0  0  0  0  0  0
  -30.6137   58.2439   60.2176 H   0  0  0  0  0  0  0  0  0  0  0  0
  -35.8837   64.0950   62.8308 H   0  0  0  0  0  0  0  0  0  0  0  0
  -34.3335   63.5295   63.4714 H   0  0  0  0  0  0  0  0  0  0  0  0
  -35.6824   62.4805   61.0198 H   0  0  0  0  0  0  0  0  0  0  0  0
  -35.6333   61.7015   62.6095 H   0  0  0  0  0  0  0  0  0  0  0  0
  -33.2668   62.2992   60.8950 H   0  0  0  0  0  0  0  0  0  0  0  0
  -34.0486   60.7164   61.1249 H   0  0  0  0  0  0  0  0  0  0  0  0
  -32.6911   62.2996   63.2475 H   0  0  0  0  0  0  0  0  0  0  0  0
  -32.0440   60.8779   62.3945 H   0  0  0  0  0  0  0  0  0  0  0  0
  -34.4512   60.8976   64.1457 H   0  0  0  0  0  0  0  0  0  0  0  0
  -32.8282   60.2944   64.5626 H   0  0  0  0  0  0  0  0  0  0  0  0
  -32.9972   58.6011   62.8951 H   0  0  0  0  0  0  0  0  0  0  0  0
  -34.6117   59.2096   62.4574 H   0  0  0  0  0  0  0  0  0  0  0  0
  -33.8658   58.0081   65.0769 H   0  0  0  0  0  0  0  0  0  0  0  0
  -34.7692   57.2261   63.7511 H   0  0  0  0  0  0  0  0  0  0  0  0
  -36.5596   58.7691   64.0182 H   0  0  0  0  0  0  0  0  0  0  0  0
  -35.6583   59.5727   65.3274 H   0  0  0  0  0  0  0  0  0  0  0  0
  -37.4188   58.1693   66.1966 H   0  0  0  0  0  0  0  0  0  0  0  0
  -35.7847   57.6085   66.6484 H   0  0  0  0  0  0  0  0  0  0  0  0
  -37.2562   55.7567   66.1543 H   0  0  0  0  0  0  0  0  0  0  0  0
  -35.8950   55.8907   65.0200 H   0  0  0  0  0  0  0  0  0  0  0  0
  -37.3308   56.8545   63.3692 H   0  0  0  0  0  0  0  0  0  0  0  0
  -38.6957   56.7260   64.5186 H   0  0  0  0  0  0  0  0  0  0  0  0
  -38.8053   55.0270   62.8163 H   0  0  0  0  0  0  0  0  0  0  0  0
  -38.5552   54.3740   64.4618 H   0  0  0  0  0  0  0  0  0  0  0  0
  -36.2636   53.9433   63.9791 H   0  0  0  0  0  0  0  0  0  0  0  0
  -36.4765   54.6159   62.3534 H   0  0  0  0  0  0  0  0  0  0  0  0
  -38.2669   52.6566   62.1974 H   0  0  0  0  0  0  0  0  0  0  0  0
  -37.0171   50.7784   62.2721 H   0  0  0  0  0  0  0  0  0  0  0  0
  -35.1139   50.5180   63.6496 H   0  0  0  0  0  0  0  0  0  0  0  0
  -35.1477   52.2555   64.0277 H   0  0  0  0  0  0  0  0  0  0  0  0
  -34.2136   52.7685   61.8835 H   0  0  0  0  0  0  0  0  0  0  0  0
  -34.1956   51.0381   61.4861 H   0  0  0  0  0  0  0  0  0  0  0  0
  -32.6042   50.6291   63.2250 H   0  0  0  0  0  0  0  0  0  0  0  0
  -32.6312   52.3556   63.6411 H   0  0  0  0  0  0  0  0  0  0  0  0
  -31.6832   51.2091   61.0580 H   0  0  0  0  0  0  0  0  0  0  0  0
  -30.6758   51.8077   62.4037 H   0  0  0  0  0  0  0  0  0  0  0  0
  -32.5341   53.4617   60.7699 H   0  0  0  0  0  0  0  0  0  0  0  0
  -30.7629   53.3860   60.6229 H   0  0  0  0  0  0  0  0  0  0  0  0
  -30.5145   54.2705   62.8227 H   0  0  0  0  0  0  0  0  0  0  0  0
  -32.2885   54.3322   62.9812 H   0  0  0  0  0  0  0  0  0  0  0  0
  -30.6720   55.9209   61.0510 H   0  0  0  0  0  0  0  0  0  0  0  0
  -31.3760   56.5023   62.5702 H   0  0  0  0  0  0  0  0  0  0  0  0
  -32.9073   55.4824   60.2157 H   0  0  0  0  0  0  0  0  0  0  0  0
  -32.7461   57.1563   60.6902 H   0  0  0  0  0  0  0  0  0  0  0  0
  -33.5912   56.0319   61.7268 H   0  0  0  0  0  0  0  0  0  0  0  0
  -32.6683   69.1148   60.4768 H   0  0  0  0  0  0  0  0  0  0  0  0
  -29.7806   69.1171   59.6081 H   0  0  0  0  0  0  0  0  0  0  0  0
  -32.1244   70.5404   58.3348 H   0  0  0  0  0  0  0  0  0  0  0  0
  -31.9715   69.0231   56.5509 H   0  0  0  0  0  0  0  0  0  0  0  0
  -33.3938   68.3546   58.3234 H   0  0  0  0  0  0  0  0  0  0  0  0
  -31.8154   65.9631   57.4586 H   0  0  0  0  0  0  0  0  0  0  0  0
  -33.4461   65.9486   58.1276 H   0  0  0  0  0  0  0  0  0  0  0  0
  1  4  1  0  0  0  0
  1 31  1  0  0  0  0
  1 62  1  0  0  0  0
  2  3  1  0  0  0  0
  2  4  1  0  0  0  0
  2 63  1  0  0  0  0
  2 64  1  0  0  0  0
  3 55  1  0  0  0  0
  4  6  1  0  0  0  0
  4 65  1  6  0  0  0
  5  6  1  0  0  0  0
  5 66  1  0  0  0  0
  6  8  1  0  0  0  0
  6 67  1  6  0  0  0
  7 31  2  0  0  0  0
  8 10  2  0  0  0  0
  8 68  1  0  0  0  0
  9 56  1  0  0  0  0
  9 69  1  0  0  0  0
 10 12  1  0  0  0  0
 10 70  1  0  0  0  0
 11 57  1  0  0  0  0
 11 61  1  0  0  0  0
 12 14  1  0  0  0  0
 12 71  1  0  0  0  0
 12 72  1  0  0  0  0
 13 58  1  0  0  0  0
 13 73  1  0  0  0  0
 14 16  1  0  0  0  0
 14 74  1  0  0  0  0
 14 75  1  0  0  0  0
 15 55  1  0  0  0  0
 15 59  1  0  0  0  0
 16 18  1  0  0  0  0
 16 76  1  0  0  0  0
 16 77  1  0  0  0  0
 17 60  1  0  0  0  0
 17 78  1  0  0  0  0
 18 20  1  0  0  0  0
 18 79  1  0  0  0  0
 18 80  1  0  0  0  0
 19 61  1  0  0  0  0
 19 81  1  0  0  0  0
 20 22  1  0  0  0  0
 20 82  1  0  0  0  0
 20 83  1  0  0  0  0
 21 61  1  0  0  0  0
 22 24  1  0  0  0  0
 22 84  1  0  0  0  0
 22 85  1  0  0  0  0
 23 61  1  0  0  0  0
 23 86  1  0  0  0  0
 24 25  1  0  0  0  0
 24 87  1  0  0  0  0
 24 88  1  0  0  0  0
 25 26  1  0  0  0  0
 25 89  1  0  0  0  0
 25 90  1  0  0  0  0
 26 27  1  0  0  0  0
 26 91  1  0  0  0  0
 26 92  1  0  0  0  0
 27 28  1  0  0  0  0
 27 93  1  0  0  0  0
 27 94  1  0  0  0  0
 28 29  1  0  0  0  0
 28 95  1  0  0  0  0
 28 96  1  0  0  0  0
 29 30  1  0  0  0  0
 29 97  1  0  0  0  0
 29 98  1  0  0  0  0
 30 99  1  0  0  0  0
 30100  1  0  0  0  0
 30101  1  0  0  0  0
 31 32  1  0  0  0  0
 32 33  1  0  0  0  0
 32102  1  0  0  0  0
 32103  1  0  0  0  0
 33 34  1  0  0  0  0
 33104  1  0  0  0  0
 33105  1  0  0  0  0
 34 35  1  0  0  0  0
 34106  1  0  0  0  0
 34107  1  0  0  0  0
 35 36  1  0  0  0  0
 35108  1  0  0  0  0
 35109  1  0  0  0  0
 36 37  1  0  0  0  0
 36110  1  0  0  0  0
 36111  1  0  0  0  0
 37 38  1  0  0  0  0
 37112  1  0  0  0  0
 37113  1  0  0  0  0
 38 39  1  0  0  0  0
 38114  1  0  0  0  0
 38115  1  0  0  0  0
 39 40  1  0  0  0  0
 39116  1  0  0  0  0
 39117  1  0  0  0  0
 40 41  1  0  0  0  0
 40118  1  0  0  0  0
 40119  1  0  0  0  0
 41 42  1  0  0  0  0
 41120  1  0  0  0  0
 41121  1  0  0  0  0
 42 43  1  0  0  0  0
 42122  1  0  0  0  0
 42123  1  0  0  0  0
 43 44  1  0  0  0  0
 43124  1  0  0  0  0
 43125  1  0  0  0  0
 44 45  1  0  0  0  0
 44126  1  0  0  0  0
 44127  1  0  0  0  0
 45 46  2  0  0  0  0
 45128  1  0  0  0  0
 46 47  1  0  0  0  0
 46129  1  0  0  0  0
 47 48  1  0  0  0  0
 47130  1  0  0  0  0
 47131  1  0  0  0  0
 48 49  1  0  0  0  0
 48132  1  0  0  0  0
 48133  1  0  0  0  0
 49 50  1  0  0  0  0
 49134  1  0  0  0  0
 49135  1  0  0  0  0
 50 51  1  0  0  0  0
 50136  1  0  0  0  0
 50137  1  0  0  0  0
 51 52  1  0  0  0  0
 51138  1  0  0  0  0
 51139  1  0  0  0  0
 52 53  1  0  0  0  0
 52140  1  0  0  0  0
 52141  1  0  0  0  0
 53 54  1  0  0  0  0
 53142  1  0  0  0  0
 53143  1  0  0  0  0
 54144  1  0  0  0  0
 54145  1  0  0  0  0
 54146  1  0  0  0  0
 55 56  1  0  0  0  0
 55147  1  1  0  0  0
 56 57  1  0  0  0  0
 56148  1  6  0  0  0
 57 58  1  0  0  0  0
 57149  1  1  0  0  0
 58 59  1  0  0  0  0
 58150  1  6  0  0  0
 59 60  1  0  0  0  0
 59151  1  1  0  0  0
 60152  1  0  0  0  0
 60153  1  0  0  0  0
M  CHG  1  21  -1
M  END
$$$$