/media/chris/experiments/cd1a-new-docking/inputs/ligands/7ryn_ligand.pdb
 OpenBabel07032312553D

153153  0  0  1  0  0  0  0  0999 V2000
  -33.0340   65.1330   62.2120 N   0  0  0  0  0  0  0  0  0  0  0  0
  -32.0220   67.3480   62.3220 C   0  0  0  0  0  0  0  0  0  0  0  0
  -33.3204   67.9104   62.5424 O   0  0  0  0  0  0  0  0  0  0  0  0
  -32.1830   66.0840   61.5030 C   0  0  1  0  0  0  0  0  0  0  0  0
  -31.0548   64.2805   60.3587 O   0  0  0  0  0  0  0  0  0  0  0  0
  -30.8310   65.4230   61.1900 C   0  0  2  0  0  0  0  0  0  0  0  0
  -34.9746   65.8457   61.3210 O   0  0  0  0  0  0  0  0  0  0  0  0
  -30.1054   65.0399   62.4433 C   0  0  0  0  0  0  0  0  0  0  0  0
  -35.3151   69.8361   62.1498 O   0  0  0  0  0  0  0  0  0  0  0  0
  -28.9184   64.4680   62.4873 C   0  0  0  0  0  0  0  0  0  0  0  0
  -36.2332   71.0293   64.5551 O   0  0  0  0  0  0  0  0  0  0  0  0
  -28.2138   64.1114   63.7550 C   0  0  0  0  0  0  0  0  0  0  0  0
  -34.7894   69.6393   66.4168 O   0  0  0  0  0  0  0  0  0  0  0  0
  -27.9816   65.3501   64.6226 C   0  0  0  0  0  0  0  0  0  0  0  0
  -32.7334   68.8853   64.5507 O   0  0  0  0  0  0  0  0  0  0  0  0
  -27.1527   66.4338   63.9524 C   0  0  0  0  0  0  0  0  0  0  0  0
  -32.5661   68.6711   67.3280 O   0  0  0  0  0  0  0  0  0  0  0  0
  -26.9068   67.6575   64.8184 C   0  0  0  0  0  0  0  0  0  0  0  0
  -38.4981   71.4463   63.8454 O   0  0  0  0  0  0  0  0  0  0  0  0
  -26.0908   68.7452   64.1351 C   0  0  0  0  0  0  0  0  0  0  0  0
  -36.8651   70.3129   62.3077 O   0  5  0  0  0  0  0  0  0  0  0  0
  -24.7114   68.2850   63.6894 C   0  0  0  0  0  0  0  0  0  0  0  0
  -36.6888   72.6195   62.8416 O   0  0  0  0  0  0  0  0  0  0  0  0
  -23.8391   67.7781   64.8244 C   0  0  0  0  0  0  0  0  0  0  0  0
  -22.4553   67.3331   64.3893 C   0  0  0  0  0  0  0  0  0  0  0  0
  -21.6273   68.4346   63.7500 C   0  0  0  0  0  0  0  0  0  0  0  0
  -21.3789   69.6067   64.6810 C   0  0  0  0  0  0  0  0  0  0  0  0
  -22.6388   70.2868   65.1816 C   0  0  0  0  0  0  0  0  0  0  0  0
  -22.3437   71.4613   66.0938 C   0  0  0  0  0  0  0  0  0  0  0  0
  -21.5406   72.5445   65.4039 C   0  0  0  0  0  0  0  0  0  0  0  0
  -34.3610   65.0876   62.0665 C   0  0  0  0  0  0  0  0  0  0  0  0
  -35.0703   64.0312   62.8766 C   0  0  0  0  0  0  0  0  0  0  0  0
  -35.8339   63.0413   62.0062 C   0  0  0  0  0  0  0  0  0  0  0  0
  -34.9289   62.2826   61.0488 C   0  0  0  0  0  0  0  0  0  0  0  0
  -35.6649   61.2987   60.1545 C   0  0  0  0  0  0  0  0  0  0  0  0
  -34.7559   60.5280   59.2088 C   0  0  0  0  0  0  0  0  0  0  0  0
  -35.4921   59.5530   58.2988 C   0  0  0  0  0  0  0  0  0  0  0  0
  -36.5093   60.2157   57.3788 C   0  0  0  0  0  0  0  0  0  0  0  0
  -37.2677   59.2495   56.4723 C   0  0  0  0  0  0  0  0  0  0  0  0
  -38.0873   58.2031   57.2256 C   0  0  0  0  0  0  0  0  0  0  0  0
  -38.8391   57.2176   56.3312 C   0  0  0  0  0  0  0  0  0  0  0  0
  -39.8308   57.8910   55.3823 C   0  0  0  0  0  0  0  0  0  0  0  0
  -39.2120   58.8798   54.3944 C   0  0  0  0  0  0  0  0  0  0  0  0
  -40.2100   59.5649   53.4570 C   0  0  0  0  0  0  0  0  0  0  0  0
  -41.2394   60.3740   54.1917 C   0  0  0  0  0  0  0  0  0  0  0  0
  -41.1399   61.6512   54.5154 C   0  0  0  0  0  0  0  0  0  0  0  0
  -39.9799   62.5501   54.2115 C   0  0  0  0  0  0  0  0  0  0  0  0
  -40.1027   63.2804   52.8725 C   0  0  0  0  0  0  0  0  0  0  0  0
  -38.9116   64.1781   52.5647 C   0  0  0  0  0  0  0  0  0  0  0  0
  -38.6848   65.2625   53.6121 C   0  0  0  0  0  0  0  0  0  0  0  0
  -39.8622   66.2118   53.8030 C   0  0  0  0  0  0  0  0  0  0  0  0
  -39.6120   67.2978   54.8398 C   0  0  0  0  0  0  0  0  0  0  0  0
  -39.2970   66.7699   56.2304 C   0  0  0  0  0  0  0  0  0  0  0  0
  -39.0700   67.8744   57.2426 C   0  0  0  0  0  0  0  0  0  0  0  0
  -33.3156   69.0988   63.2783 C   0  0  2  0  0  0  0  0  0  0  0  0
  -34.7576   69.5657   63.4297 C   0  0  1  0  0  0  0  0  0  0  0  0
  -34.8089   70.8140   64.3015 C   0  0  2  0  0  0  0  0  0  0  0  0
  -34.0866   70.5888   65.6217 C   0  0  2  0  0  0  0  0  0  0  0  0
  -32.6741   70.0760   65.3523 C   0  0  1  0  0  0  0  0  0  0  0  0
  -31.9211   69.7182   66.6122 C   0  0  0  0  0  0  0  0  0  0  0  0
  -37.2005   71.2487   63.3141 S   0  0  0  0  0  0  0  0  0  0  0  0
  -32.6087   64.4935   62.8279 H   0  0  0  0  0  0  0  0  0  0  0  0
  -31.5648   67.1148   63.2609 H   0  0  0  0  0  0  0  0  0  0  0  0
  -31.4012   68.0473   61.8019 H   0  0  0  0  0  0  0  0  0  0  0  0
  -32.6374   66.3625   60.5752 H   0  0  0  0  0  0  0  0  0  0  0  0
  -31.5249   64.5525   59.5551 H   0  0  0  0  0  0  0  0  0  0  0  0
  -30.2105   66.1253   60.6735 H   0  0  0  0  0  0  0  0  0  0  0  0
  -30.5711   65.2392   63.3425 H   0  0  0  0  0  0  0  0  0  0  0  0
  -35.2768   69.0347   61.6046 H   0  0  0  0  0  0  0  0  0  0  0  0
  -28.4487   64.2543   61.5936 H   0  0  0  0  0  0  0  0  0  0  0  0
  -27.2690   63.6690   63.5172 H   0  0  0  0  0  0  0  0  0  0  0  0
  -28.8242   63.4230   64.3013 H   0  0  0  0  0  0  0  0  0  0  0  0
  -35.6873   69.9632   66.5891 H   0  0  0  0  0  0  0  0  0  0  0  0
  -27.4762   65.0448   65.5150 H   0  0  0  0  0  0  0  0  0  0  0  0
  -28.9444   65.7749   64.8161 H   0  0  0  0  0  0  0  0  0  0  0  0
  -27.6644   66.7475   63.0666 H   0  0  0  0  0  0  0  0  0  0  0  0
  -26.1940   66.0046   63.7487 H   0  0  0  0  0  0  0  0  0  0  0  0
  -32.0585   68.4665   68.1288 H   0  0  0  0  0  0  0  0  0  0  0  0
  -26.3835   67.3471   65.6986 H   0  0  0  0  0  0  0  0  0  0  0  0
  -27.8652   68.0802   65.0365 H   0  0  0  0  0  0  0  0  0  0  0  0
  -38.8534   70.5983   64.1546 H   0  0  0  0  0  0  0  0  0  0  0  0
  -25.9708   69.5583   64.8202 H   0  0  0  0  0  0  0  0  0  0  0  0
  -26.6257   69.0303   63.2533 H   0  0  0  0  0  0  0  0  0  0  0  0
  -24.2142   69.1104   63.2242 H   0  0  0  0  0  0  0  0  0  0  0  0
  -24.8579   67.4648   63.0181 H   0  0  0  0  0  0  0  0  0  0  0  0
  -36.9009   73.2912   63.5085 H   0  0  0  0  0  0  0  0  0  0  0  0
  -24.3320   66.9455   65.2812 H   0  0  0  0  0  0  0  0  0  0  0  0
  -23.7025   68.5975   65.4989 H   0  0  0  0  0  0  0  0  0  0  0  0
  -22.5642   66.5389   63.6805 H   0  0  0  0  0  0  0  0  0  0  0  0
  -21.9354   67.0267   65.2729 H   0  0  0  0  0  0  0  0  0  0  0  0
  -22.1447   68.7909   62.8839 H   0  0  0  0  0  0  0  0  0  0  0  0
  -20.6745   68.0155   63.5022 H   0  0  0  0  0  0  0  0  0  0  0  0
  -20.7927   70.3322   64.1568 H   0  0  0  0  0  0  0  0  0  0  0  0
  -20.8817   69.2125   65.5426 H   0  0  0  0  0  0  0  0  0  0  0  0
  -23.2230   69.5715   65.7218 H   0  0  0  0  0  0  0  0  0  0  0  0
  -23.1650   70.6626   64.3290 H   0  0  0  0  0  0  0  0  0  0  0  0
  -21.7896   71.1088   66.9386 H   0  0  0  0  0  0  0  0  0  0  0  0
  -23.2800   71.8880   66.3874 H   0  0  0  0  0  0  0  0  0  0  0  0
  -20.5955   72.1473   65.0973 H   0  0  0  0  0  0  0  0  0  0  0  0
  -21.3830   73.3577   66.0811 H   0  0  0  0  0  0  0  0  0  0  0  0
  -22.0760   72.8937   64.5458 H   0  0  0  0  0  0  0  0  0  0  0  0
  -35.7619   64.5121   63.5364 H   0  0  0  0  0  0  0  0  0  0  0  0
  -34.3269   63.4826   63.4163 H   0  0  0  0  0  0  0  0  0  0  0  0
  -36.5626   63.5782   61.4356 H   0  0  0  0  0  0  0  0  0  0  0  0
  -36.2903   62.3243   62.6563 H   0  0  0  0  0  0  0  0  0  0  0  0
  -34.2083   61.7404   61.6246 H   0  0  0  0  0  0  0  0  0  0  0  0
  -34.4784   63.0095   60.4057 H   0  0  0  0  0  0  0  0  0  0  0  0
  -36.3769   61.8424   59.5694 H   0  0  0  0  0  0  0  0  0  0  0  0
  -36.1266   60.5790   60.7977 H   0  0  0  0  0  0  0  0  0  0  0  0
  -34.0518   59.9752   59.7949 H   0  0  0  0  0  0  0  0  0  0  0  0
  -34.2867   61.2500   58.5736 H   0  0  0  0  0  0  0  0  0  0  0  0
  -36.0053   58.8418   58.9119 H   0  0  0  0  0  0  0  0  0  0  0  0
  -34.7553   59.0975   57.6706 H   0  0  0  0  0  0  0  0  0  0  0  0
  -35.9918   60.9183   56.7596 H   0  0  0  0  0  0  0  0  0  0  0  0
  -37.2392   60.6742   58.0127 H   0  0  0  0  0  0  0  0  0  0  0  0
  -36.5577   58.7400   55.8549 H   0  0  0  0  0  0  0  0  0  0  0  0
  -37.9606   59.8361   55.9060 H   0  0  0  0  0  0  0  0  0  0  0  0
  -38.8036   58.7149   57.8338 H   0  0  0  0  0  0  0  0  0  0  0  0
  -37.3900   57.6244   57.7947 H   0  0  0  0  0  0  0  0  0  0  0  0
  -39.3773   56.5357   56.9558 H   0  0  0  0  0  0  0  0  0  0  0  0
  -38.1095   56.7225   55.7250 H   0  0  0  0  0  0  0  0  0  0  0  0
  -40.5495   58.4188   55.9737 H   0  0  0  0  0  0  0  0  0  0  0  0
  -40.2583   57.1075   54.7922 H   0  0  0  0  0  0  0  0  0  0  0  0
  -38.5024   58.3497   53.7942 H   0  0  0  0  0  0  0  0  0  0  0  0
  -38.7720   59.6569   54.9838 H   0  0  0  0  0  0  0  0  0  0  0  0
  -40.7115   58.8134   52.8838 H   0  0  0  0  0  0  0  0  0  0  0  0
  -39.6571   60.2370   52.8345 H   0  0  0  0  0  0  0  0  0  0  0  0
  -42.1057   59.8871   54.4699 H   0  0  0  0  0  0  0  0  0  0  0  0
  -41.9346   62.0684   55.0248 H   0  0  0  0  0  0  0  0  0  0  0  0
  -39.0891   61.9577   54.1928 H   0  0  0  0  0  0  0  0  0  0  0  0
  -39.9558   63.2990   54.9753 H   0  0  0  0  0  0  0  0  0  0  0  0
  -40.9861   63.8838   52.8944 H   0  0  0  0  0  0  0  0  0  0  0  0
  -40.1433   62.5340   52.1068 H   0  0  0  0  0  0  0  0  0  0  0  0
  -39.0776   64.6496   51.6186 H   0  0  0  0  0  0  0  0  0  0  0  0
  -38.0405   63.5567   52.5593 H   0  0  0  0  0  0  0  0  0  0  0  0
  -37.8341   65.8402   53.3164 H   0  0  0  0  0  0  0  0  0  0  0  0
  -38.5444   64.7595   54.5460 H   0  0  0  0  0  0  0  0  0  0  0  0
  -40.7112   65.6387   54.1125 H   0  0  0  0  0  0  0  0  0  0  0  0
  -40.0210   66.7046   52.8666 H   0  0  0  0  0  0  0  0  0  0  0  0
  -40.4876   67.9095   54.9033 H   0  0  0  0  0  0  0  0  0  0  0  0
  -38.7498   67.8415   54.5143 H   0  0  0  0  0  0  0  0  0  0  0  0
  -38.4128   66.1698   56.1757 H   0  0  0  0  0  0  0  0  0  0  0  0
  -40.1432   66.2029   56.5581 H   0  0  0  0  0  0  0  0  0  0  0  0
  -38.2277   68.4634   56.9449 H   0  0  0  0  0  0  0  0  0  0  0  0
  -38.8823   67.4440   58.2041 H   0  0  0  0  0  0  0  0  0  0  0  0
  -39.9396   68.4958   57.2936 H   0  0  0  0  0  0  0  0  0  0  0  0
  -32.7377   69.8438   62.7723 H   0  0  0  0  0  0  0  0  0  0  0  0
  -35.3300   68.7932   63.8992 H   0  0  0  0  0  0  0  0  0  0  0  0
  -34.3360   71.6474   63.8253 H   0  0  0  0  0  0  0  0  0  0  0  0
  -34.0399   71.5181   66.1499 H   0  0  0  0  0  0  0  0  0  0  0  0
  -32.1619   70.8745   64.8573 H   0  0  0  0  0  0  0  0  0  0  0  0
  -30.9335   69.4016   66.3486 H   0  0  0  0  0  0  0  0  0  0  0  0
  -31.8897   70.5836   67.2407 H   0  0  0  0  0  0  0  0  0  0  0  0
  1  4  1  0  0  0  0
  1 31  1  0  0  0  0
  1 62  1  0  0  0  0
  2  3  1  0  0  0  0
  2  4  1  0  0  0  0
  2 63  1  0  0  0  0
  2 64  1  0  0  0  0
  3 55  1  0  0  0  0
  4  6  1  0  0  0  0
  4 65  1  6  0  0  0
  5  6  1  0  0  0  0
  5 66  1  0  0  0  0
  6  8  1  0  0  0  0
  6 67  1  6  0  0  0
  7 31  2  0  0  0  0
  8 10  2  0  0  0  0
  8 68  1  0  0  0  0
  9 56  1  0  0  0  0
  9 69  1  0  0  0  0
 10 12  1  0  0  0  0
 10 70  1  0  0  0  0
 11 57  1  0  0  0  0
 11 61  1  0  0  0  0
 12 14  1  0  0  0  0
 12 71  1  0  0  0  0
 12 72  1  0  0  0  0
 13 58  1  0  0  0  0
 13 73  1  0  0  0  0
 14 16  1  0  0  0  0
 14 74  1  0  0  0  0
 14 75  1  0  0  0  0
 15 55  1  0  0  0  0
 15 59  1  0  0  0  0
 16 18  1  0  0  0  0
 16 76  1  0  0  0  0
 16 77  1  0  0  0  0
 17 60  1  0  0  0  0
 17 78  1  0  0  0  0
 18 20  1  0  0  0  0
 18 79  1  0  0  0  0
 18 80  1  0  0  0  0
 19 61  1  0  0  0  0
 19 81  1  0  0  0  0
 20 22  1  0  0  0  0
 20 82  1  0  0  0  0
 20 83  1  0  0  0  0
 21 61  1  0  0  0  0
 22 24  1  0  0  0  0
 22 84  1  0  0  0  0
 22 85  1  0  0  0  0
 23 61  1  0  0  0  0
 23 86  1  0  0  0  0
 24 25  1  0  0  0  0
 24 87  1  0  0  0  0
 24 88  1  0  0  0  0
 25 26  1  0  0  0  0
 25 89  1  0  0  0  0
 25 90  1  0  0  0  0
 26 27  1  0  0  0  0
 26 91  1  0  0  0  0
 26 92  1  0  0  0  0
 27 28  1  0  0  0  0
 27 93  1  0  0  0  0
 27 94  1  0  0  0  0
 28 29  1  0  0  0  0
 28 95  1  0  0  0  0
 28 96  1  0  0  0  0
 29 30  1  0  0  0  0
 29 97  1  0  0  0  0
 29 98  1  0  0  0  0
 30 99  1  0  0  0  0
 30100  1  0  0  0  0
 30101  1  0  0  0  0
 31 32  1  0  0  0  0
 32 33  1  0  0  0  0
 32102  1  0  0  0  0
 32103  1  0  0  0  0
 33 34  1  0  0  0  0
 33104  1  0  0  0  0
 33105  1  0  0  0  0
 34 35  1  0  0  0  0
 34106  1  0  0  0  0
 34107  1  0  0  0  0
 35 36  1  0  0  0  0
 35108  1  0  0  0  0
 35109  1  0  0  0  0
 36 37  1  0  0  0  0
 36110  1  0  0  0  0
 36111  1  0  0  0  0
 37 38  1  0  0  0  0
 37112  1  0  0  0  0
 37113  1  0  0  0  0
 38 39  1  0  0  0  0
 38114  1  0  0  0  0
 38115  1  0  0  0  0
 39 40  1  0  0  0  0
 39116  1  0  0  0  0
 39117  1  0  0  0  0
 40 41  1  0  0  0  0
 40118  1  0  0  0  0
 40119  1  0  0  0  0
 41 42  1  0  0  0  0
 41120  1  0  0  0  0
 41121  1  0  0  0  0
 42 43  1  0  0  0  0
 42122  1  0  0  0  0
 42123  1  0  0  0  0
 43 44  1  0  0  0  0
 43124  1  0  0  0  0
 43125  1  0  0  0  0
 44 45  1  0  0  0  0
 44126  1  0  0  0  0
 44127  1  0  0  0  0
 45 46  2  0  0  0  0
 45128  1  0  0  0  0
 46 47  1  0  0  0  0
 46129  1  0  0  0  0
 47 48  1  0  0  0  0
 47130  1  0  0  0  0
 47131  1  0  0  0  0
 48 49  1  0  0  0  0
 48132  1  0  0  0  0
 48133  1  0  0  0  0
 49 50  1  0  0  0  0
 49134  1  0  0  0  0
 49135  1  0  0  0  0
 50 51  1  0  0  0  0
 50136  1  0  0  0  0
 50137  1  0  0  0  0
 51 52  1  0  0  0  0
 51138  1  0  0  0  0
 51139  1  0  0  0  0
 52 53  1  0  0  0  0
 52140  1  0  0  0  0
 52141  1  0  0  0  0
 53 54  1  0  0  0  0
 53142  1  0  0  0  0
 53143  1  0  0  0  0
 54144  1  0  0  0  0
 54145  1  0  0  0  0
 54146  1  0  0  0  0
 55 56  1  0  0  0  0
 55147  1  6  0  0  0
 56 57  1  0  0  0  0
 56148  1  1  0  0  0
 57 58  1  0  0  0  0
 57149  1  6  0  0  0
 58 59  1  0  0  0  0
 58150  1  1  0  0  0
 59 60  1  0  0  0  0
 59151  1  6  0  0  0
 60152  1  0  0  0  0
 60153  1  0  0  0  0
M  CHG  1  21  -1
M  END
$$$$