/media/chris/experiments/cd1a-new-docking/inputs/ligands/7ryn_ligand.pdb
 OpenBabel07032312553D

153153  0  0  1  0  0  0  0  0999 V2000
  -33.0340   65.1330   62.2120 N   0  0  0  0  0  0  0  0  0  0  0  0
  -32.0220   67.3480   62.3220 C   0  0  0  0  0  0  0  0  0  0  0  0
  -31.4051   67.0024   63.5673 O   0  0  0  0  0  0  0  0  0  0  0  0
  -32.1830   66.0840   61.5030 C   0  0  1  0  0  0  0  0  0  0  0  0
  -30.2154   65.0225   62.4176 O   0  0  0  0  0  0  0  0  0  0  0  0
  -30.8310   65.4230   61.1900 C   0  0  2  0  0  0  0  0  0  0  0  0
  -31.7322   64.9724   64.0416 O   0  0  0  0  0  0  0  0  0  0  0  0
  -29.9369   66.3439   60.4177 C   0  0  0  0  0  0  0  0  0  0  0  0
  -31.4046   66.6220   66.3415 O   0  0  0  0  0  0  0  0  0  0  0  0
  -30.3493   67.2791   59.5850 C   0  0  0  0  0  0  0  0  0  0  0  0
  -29.4155   68.1261   67.6954 O   0  0  0  0  0  0  0  0  0  0  0  0
  -29.4320   68.1925   58.8402 C   0  0  0  0  0  0  0  0  0  0  0  0
  -28.1411   69.3260   65.5933 O   0  0  0  0  0  0  0  0  0  0  0  0
  -30.0369   68.6037   57.4962 C   0  0  0  0  0  0  0  0  0  0  0  0
  -30.3909   69.0606   63.8198 O   0  0  0  0  0  0  0  0  0  0  0  0
  -29.1521   69.5229   56.6698 C   0  0  0  0  0  0  0  0  0  0  0  0
  -28.1534   70.6686   63.3778 O   0  0  0  0  0  0  0  0  0  0  0  0
  -27.8078   68.9235   56.2936 C   0  0  0  0  0  0  0  0  0  0  0  0
  -29.0352   66.5764   69.5011 O   0  0  0  0  0  0  0  0  0  0  0  0
  -26.9206   69.8553   55.4809 C   0  0  0  0  0  0  0  0  0  0  0  0
  -30.6879   66.0419   67.6849 O   0  5  0  0  0  0  0  0  0  0  0  0
  -27.5438   70.3001   54.1668 C   0  0  0  0  0  0  0  0  0  0  0  0
  -31.1144   67.7162   69.3133 O   0  0  0  0  0  0  0  0  0  0  0  0
  -27.8873   69.1527   53.2332 C   0  0  0  0  0  0  0  0  0  0  0  0
  -28.4940   69.5903   51.9130 C   0  0  0  0  0  0  0  0  0  0  0  0
  -29.7822   70.3817   52.0600 C   0  0  0  0  0  0  0  0  0  0  0  0
  -29.6025   71.6676   52.8453 C   0  0  0  0  0  0  0  0  0  0  0  0
  -30.8741   72.4744   53.0253 C   0  0  0  0  0  0  0  0  0  0  0  0
  -31.9461   71.7118   53.7788 C   0  0  0  0  0  0  0  0  0  0  0  0
  -33.2213   72.5126   53.9428 C   0  0  0  0  0  0  0  0  0  0  0  0
  -32.7434   64.6519   63.4237 C   0  0  0  0  0  0  0  0  0  0  0  0
  -33.7473   63.6846   63.9996 C   0  0  0  0  0  0  0  0  0  0  0  0
  -35.1647   63.9518   63.5095 C   0  0  0  0  0  0  0  0  0  0  0  0
  -36.1814   62.9890   64.1016 C   0  0  0  0  0  0  0  0  0  0  0  0
  -37.6033   63.2201   63.6178 C   0  0  0  0  0  0  0  0  0  0  0  0
  -38.1404   64.6094   63.9275 C   0  0  0  0  0  0  0  0  0  0  0  0
  -38.1640   64.9480   65.4126 C   0  0  0  0  0  0  0  0  0  0  0  0
  -38.7181   66.3330   65.7210 C   0  0  0  0  0  0  0  0  0  0  0  0
  -38.7326   66.6939   67.2042 C   0  0  0  0  0  0  0  0  0  0  0  0
  -39.3061   68.0784   67.5019 C   0  0  0  0  0  0  0  0  0  0  0  0
  -40.7588   68.2730   67.0683 C   0  0  0  0  0  0  0  0  0  0  0  0
  -41.3001   69.6721   67.3631 C   0  0  0  0  0  0  0  0  0  0  0  0
  -42.7564   69.9010   66.9590 C   0  0  0  0  0  0  0  0  0  0  0  0
  -43.7699   68.9882   67.6545 C   0  0  0  0  0  0  0  0  0  0  0  0
  -43.7722   69.1498   69.1472 C   0  0  0  0  0  0  0  0  0  0  0  0
  -44.0590   68.2107   70.0314 C   0  0  0  0  0  0  0  0  0  0  0  0
  -44.4371   66.7939   69.7218 C   0  0  0  0  0  0  0  0  0  0  0  0
  -43.3559   66.0210   68.9635 C   0  0  0  0  0  0  0  0  0  0  0  0
  -42.0447   65.9108   69.7303 C   0  0  0  0  0  0  0  0  0  0  0  0
  -42.1825   65.1826   71.0626 C   0  0  0  0  0  0  0  0  0  0  0  0
  -42.6691   63.7426   70.9475 C   0  0  0  0  0  0  0  0  0  0  0  0
  -44.0315   63.6074   70.2820 C   0  0  0  0  0  0  0  0  0  0  0  0
  -44.5337   62.1761   70.1776 C   0  0  0  0  0  0  0  0  0  0  0  0
  -44.7006   61.5100   71.5283 C   0  0  0  0  0  0  0  0  0  0  0  0
  -31.2104   68.0828   64.4327 C   0  0  2  0  0  0  0  0  0  0  0  0
  -30.5480   67.5584   65.7001 C   0  0  1  0  0  0  0  0  0  0  0  0
  -30.2364   68.7171   66.6389 C   0  0  2  0  0  0  0  0  0  0  0  0
  -29.4420   69.8007   65.9249 C   0  0  2  0  0  0  0  0  0  0  0  0
  -30.1703   70.2134   64.6482 C   0  0  1  0  0  0  0  0  0  0  0  0
  -29.3950   71.2080   63.8163 C   0  0  0  0  0  0  0  0  0  0  0  0
  -30.0256   66.9384   68.5560 S   0  0  0  0  0  0  0  0  0  0  0  0
  -33.8632   64.8313   61.7754 H   0  0  0  0  0  0  0  0  0  0  0  0
  -31.4053   68.0450   61.7940 H   0  0  0  0  0  0  0  0  0  0  0  0
  -32.9770   67.7979   62.4965 H   0  0  0  0  0  0  0  0  0  0  0  0
  -32.6374   66.3625   60.5752 H   0  0  0  0  0  0  0  0  0  0  0  0
  -30.8116   64.4280   62.8994 H   0  0  0  0  0  0  0  0  0  0  0  0
  -30.9971   64.5628   60.5757 H   0  0  0  0  0  0  0  0  0  0  0  0
  -28.9186   66.2380   60.5475 H   0  0  0  0  0  0  0  0  0  0  0  0
  -31.5955   65.8899   65.7345 H   0  0  0  0  0  0  0  0  0  0  0  0
  -31.3654   67.3862   59.4394 H   0  0  0  0  0  0  0  0  0  0  0  0
  -28.5035   67.6900   58.6665 H   0  0  0  0  0  0  0  0  0  0  0  0
  -29.2784   69.0735   59.4278 H   0  0  0  0  0  0  0  0  0  0  0  0
  -27.6765   69.0633   66.4032 H   0  0  0  0  0  0  0  0  0  0  0  0
  -30.9615   69.1083   57.6847 H   0  0  0  0  0  0  0  0  0  0  0  0
  -30.1630   67.7058   56.9281 H   0  0  0  0  0  0  0  0  0  0  0  0
  -28.9753   70.4145   57.2343 H   0  0  0  0  0  0  0  0  0  0  0  0
  -29.6728   69.7074   55.7535 H   0  0  0  0  0  0  0  0  0  0  0  0
  -27.6822   71.3306   62.8482 H   0  0  0  0  0  0  0  0  0  0  0  0
  -27.9831   68.0388   55.7179 H   0  0  0  0  0  0  0  0  0  0  0  0
  -27.2908   68.7237   57.2088 H   0  0  0  0  0  0  0  0  0  0  0  0
  -28.3292   66.0818   69.0563 H   0  0  0  0  0  0  0  0  0  0  0  0
  -26.0043   69.3466   55.2653 H   0  0  0  0  0  0  0  0  0  0  0  0
  -26.7695   70.7360   56.0696 H   0  0  0  0  0  0  0  0  0  0  0  0
  -26.8528   70.9465   53.6672 H   0  0  0  0  0  0  0  0  0  0  0  0
  -28.4629   70.7921   54.4079 H   0  0  0  0  0  0  0  0  0  0  0  0
  -30.6977   68.3443   69.9238 H   0  0  0  0  0  0  0  0  0  0  0  0
  -28.5873   68.5134   53.7294 H   0  0  0  0  0  0  0  0  0  0  0  0
  -26.9679   68.6568   53.0016 H   0  0  0  0  0  0  0  0  0  0  0  0
  -28.6999   68.7166   51.3308 H   0  0  0  0  0  0  0  0  0  0  0  0
  -27.7832   70.2383   51.4441 H   0  0  0  0  0  0  0  0  0  0  0  0
  -30.5014   69.7714   52.5652 H   0  0  0  0  0  0  0  0  0  0  0  0
  -30.1065   70.6504   51.0764 H   0  0  0  0  0  0  0  0  0  0  0  0
  -28.8894   72.2771   52.3308 H   0  0  0  0  0  0  0  0  0  0  0  0
  -29.2791   71.3844   53.8252 H   0  0  0  0  0  0  0  0  0  0  0  0
  -31.2539   72.7356   52.0597 H   0  0  0  0  0  0  0  0  0  0  0  0
  -30.6287   73.3425   53.6007 H   0  0  0  0  0  0  0  0  0  0  0  0
  -31.5711   71.4613   54.7492 H   0  0  0  0  0  0  0  0  0  0  0  0
  -32.1828   70.8367   53.2104 H   0  0  0  0  0  0  0  0  0  0  0  0
  -33.0167   73.3971   54.5091 H   0  0  0  0  0  0  0  0  0  0  0  0
  -33.9504   71.9212   54.4561 H   0  0  0  0  0  0  0  0  0  0  0  0
  -33.5977   72.7853   52.9790 H   0  0  0  0  0  0  0  0  0  0  0  0
  -33.7318   63.7687   65.0661 H   0  0  0  0  0  0  0  0  0  0  0  0
  -33.4726   62.7018   63.6777 H   0  0  0  0  0  0  0  0  0  0  0  0
  -35.1823   63.8557   62.4439 H   0  0  0  0  0  0  0  0  0  0  0  0
  -35.4341   64.9390   63.8221 H   0  0  0  0  0  0  0  0  0  0  0  0
  -36.1662   63.0959   65.1661 H   0  0  0  0  0  0  0  0  0  0  0  0
  -35.9009   62.0068   63.7831 H   0  0  0  0  0  0  0  0  0  0  0  0
  -38.2404   62.5000   64.0874 H   0  0  0  0  0  0  0  0  0  0  0  0
  -37.5892   63.1225   62.5524 H   0  0  0  0  0  0  0  0  0  0  0  0
  -39.1400   64.6752   63.5516 H   0  0  0  0  0  0  0  0  0  0  0  0
  -37.4779   65.3084   63.4613 H   0  0  0  0  0  0  0  0  0  0  0  0
  -37.1628   64.8947   65.7863 H   0  0  0  0  0  0  0  0  0  0  0  0
  -38.8157   64.2410   65.8822 H   0  0  0  0  0  0  0  0  0  0  0  0
  -39.7228   66.3797   65.3559 H   0  0  0  0  0  0  0  0  0  0  0  0
  -38.0661   67.0344   65.2437 H   0  0  0  0  0  0  0  0  0  0  0  0
  -37.7269   66.6611   67.5682 H   0  0  0  0  0  0  0  0  0  0  0  0
  -39.3700   65.9843   67.6890 H   0  0  0  0  0  0  0  0  0  0  0  0
  -38.7062   68.8043   66.9938 H   0  0  0  0  0  0  0  0  0  0  0  0
  -39.2900   68.1905   68.5659 H   0  0  0  0  0  0  0  0  0  0  0  0
  -41.3653   67.5591   67.5854 H   0  0  0  0  0  0  0  0  0  0  0  0
  -40.7915   68.1396   66.0071 H   0  0  0  0  0  0  0  0  0  0  0  0
  -40.6946   70.3798   66.8364 H   0  0  0  0  0  0  0  0  0  0  0  0
  -41.2634   69.7884   68.4261 H   0  0  0  0  0  0  0  0  0  0  0  0
  -42.8371   69.7439   65.9037 H   0  0  0  0  0  0  0  0  0  0  0  0
  -42.9973   70.8996   67.2584 H   0  0  0  0  0  0  0  0  0  0  0  0
  -43.5306   67.9718   67.4213 H   0  0  0  0  0  0  0  0  0  0  0  0
  -44.7426   69.2591   67.3003 H   0  0  0  0  0  0  0  0  0  0  0  0
  -43.5269   70.0814   69.5172 H   0  0  0  0  0  0  0  0  0  0  0  0
  -44.0190   68.4777   71.0274 H   0  0  0  0  0  0  0  0  0  0  0  0
  -45.3259   66.8038   69.1262 H   0  0  0  0  0  0  0  0  0  0  0  0
  -44.5790   66.2962   70.6582 H   0  0  0  0  0  0  0  0  0  0  0  0
  -43.1666   66.5221   68.0372 H   0  0  0  0  0  0  0  0  0  0  0  0
  -43.7216   65.0263   68.8162 H   0  0  0  0  0  0  0  0  0  0  0  0
  -41.6784   66.8982   69.9196 H   0  0  0  0  0  0  0  0  0  0  0  0
  -41.3720   65.3392   69.1257 H   0  0  0  0  0  0  0  0  0  0  0  0
  -42.8788   65.7235   71.6688 H   0  0  0  0  0  0  0  0  0  0  0  0
  -41.2021   65.1398   71.4892 H   0  0  0  0  0  0  0  0  0  0  0  0
  -42.7315   63.3276   71.9318 H   0  0  0  0  0  0  0  0  0  0  0  0
  -41.9667   63.2241   70.3290 H   0  0  0  0  0  0  0  0  0  0  0  0
  -43.9642   64.0125   69.2940 H   0  0  0  0  0  0  0  0  0  0  0  0
  -44.7292   64.1342   70.8990 H   0  0  0  0  0  0  0  0  0  0  0  0
  -43.8324   61.6092   69.6017 H   0  0  0  0  0  0  0  0  0  0  0  0
  -45.4973   62.2068   69.7134 H   0  0  0  0  0  0  0  0  0  0  0  0
  -43.7525   61.4624   72.0221 H   0  0  0  0  0  0  0  0  0  0  0  0
  -45.0823   60.5196   71.3929 H   0  0  0  0  0  0  0  0  0  0  0  0
  -45.3847   62.0776   72.1238 H   0  0  0  0  0  0  0  0  0  0  0  0
  -32.1486   68.5400   64.6687 H   0  0  0  0  0  0  0  0  0  0  0  0
  -29.6327   67.0681   65.4416 H   0  0  0  0  0  0  0  0  0  0  0  0
  -31.1294   69.1768   67.0080 H   0  0  0  0  0  0  0  0  0  0  0  0
  -29.3488   70.6437   66.5772 H   0  0  0  0  0  0  0  0  0  0  0  0
  -31.0858   70.6667   64.9665 H   0  0  0  0  0  0  0  0  0  0  0  0
  -29.9792   71.4753   62.9606 H   0  0  0  0  0  0  0  0  0  0  0  0
  -29.1918   72.0657   64.4231 H   0  0  0  0  0  0  0  0  0  0  0  0
  1  4  1  0  0  0  0
  1 31  1  0  0  0  0
  1 62  1  0  0  0  0
  2  3  1  0  0  0  0
  2  4  1  0  0  0  0
  2 63  1  0  0  0  0
  2 64  1  0  0  0  0
  3 55  1  0  0  0  0
  4  6  1  0  0  0  0
  4 65  1  6  0  0  0
  5  6  1  0  0  0  0
  5 66  1  0  0  0  0
  6  8  1  0  0  0  0
  6 67  1  6  0  0  0
  7 31  2  0  0  0  0
  8 10  2  0  0  0  0
  8 68  1  0  0  0  0
  9 56  1  0  0  0  0
  9 69  1  0  0  0  0
 10 12  1  0  0  0  0
 10 70  1  0  0  0  0
 11 57  1  0  0  0  0
 11 61  1  0  0  0  0
 12 14  1  0  0  0  0
 12 71  1  0  0  0  0
 12 72  1  0  0  0  0
 13 58  1  0  0  0  0
 13 73  1  0  0  0  0
 14 16  1  0  0  0  0
 14 74  1  0  0  0  0
 14 75  1  0  0  0  0
 15 55  1  0  0  0  0
 15 59  1  0  0  0  0
 16 18  1  0  0  0  0
 16 76  1  0  0  0  0
 16 77  1  0  0  0  0
 17 60  1  0  0  0  0
 17 78  1  0  0  0  0
 18 20  1  0  0  0  0
 18 79  1  0  0  0  0
 18 80  1  0  0  0  0
 19 61  1  0  0  0  0
 19 81  1  0  0  0  0
 20 22  1  0  0  0  0
 20 82  1  0  0  0  0
 20 83  1  0  0  0  0
 21 61  1  0  0  0  0
 22 24  1  0  0  0  0
 22 84  1  0  0  0  0
 22 85  1  0  0  0  0
 23 61  1  0  0  0  0
 23 86  1  0  0  0  0
 24 25  1  0  0  0  0
 24 87  1  0  0  0  0
 24 88  1  0  0  0  0
 25 26  1  0  0  0  0
 25 89  1  0  0  0  0
 25 90  1  0  0  0  0
 26 27  1  0  0  0  0
 26 91  1  0  0  0  0
 26 92  1  0  0  0  0
 27 28  1  0  0  0  0
 27 93  1  0  0  0  0
 27 94  1  0  0  0  0
 28 29  1  0  0  0  0
 28 95  1  0  0  0  0
 28 96  1  0  0  0  0
 29 30  1  0  0  0  0
 29 97  1  0  0  0  0
 29 98  1  0  0  0  0
 30 99  1  0  0  0  0
 30100  1  0  0  0  0
 30101  1  0  0  0  0
 31 32  1  0  0  0  0
 32 33  1  0  0  0  0
 32102  1  0  0  0  0
 32103  1  0  0  0  0
 33 34  1  0  0  0  0
 33104  1  0  0  0  0
 33105  1  0  0  0  0
 34 35  1  0  0  0  0
 34106  1  0  0  0  0
 34107  1  0  0  0  0
 35 36  1  0  0  0  0
 35108  1  0  0  0  0
 35109  1  0  0  0  0
 36 37  1  0  0  0  0
 36110  1  0  0  0  0
 36111  1  0  0  0  0
 37 38  1  0  0  0  0
 37112  1  0  0  0  0
 37113  1  0  0  0  0
 38 39  1  0  0  0  0
 38114  1  0  0  0  0
 38115  1  0  0  0  0
 39 40  1  0  0  0  0
 39116  1  0  0  0  0
 39117  1  0  0  0  0
 40 41  1  0  0  0  0
 40118  1  0  0  0  0
 40119  1  0  0  0  0
 41 42  1  0  0  0  0
 41120  1  0  0  0  0
 41121  1  0  0  0  0
 42 43  1  0  0  0  0
 42122  1  0  0  0  0
 42123  1  0  0  0  0
 43 44  1  0  0  0  0
 43124  1  0  0  0  0
 43125  1  0  0  0  0
 44 45  1  0  0  0  0
 44126  1  0  0  0  0
 44127  1  0  0  0  0
 45 46  2  0  0  0  0
 45128  1  0  0  0  0
 46 47  1  0  0  0  0
 46129  1  0  0  0  0
 47 48  1  0  0  0  0
 47130  1  0  0  0  0
 47131  1  0  0  0  0
 48 49  1  0  0  0  0
 48132  1  0  0  0  0
 48133  1  0  0  0  0
 49 50  1  0  0  0  0
 49134  1  0  0  0  0
 49135  1  0  0  0  0
 50 51  1  0  0  0  0
 50136  1  0  0  0  0
 50137  1  0  0  0  0
 51 52  1  0  0  0  0
 51138  1  0  0  0  0
 51139  1  0  0  0  0
 52 53  1  0  0  0  0
 52140  1  0  0  0  0
 52141  1  0  0  0  0
 53 54  1  0  0  0  0
 53142  1  0  0  0  0
 53143  1  0  0  0  0
 54144  1  0  0  0  0
 54145  1  0  0  0  0
 54146  1  0  0  0  0
 55 56  1  0  0  0  0
 55147  1  1  0  0  0
 56 57  1  0  0  0  0
 56148  1  6  0  0  0
 57 58  1  0  0  0  0
 57149  1  1  0  0  0
 58 59  1  0  0  0  0
 58150  1  1  0  0  0
 59 60  1  0  0  0  0
 59151  1  1  0  0  0
 60152  1  0  0  0  0
 60153  1  0  0  0  0
M  CHG  1  21  -1
M  END
$$$$