/media/chris/experiments/cd1a-new-docking/inputs/ligands/7ryn_ligand.pdb
 OpenBabel07032312553D

153153  0  0  1  0  0  0  0  0999 V2000
  -33.0340   65.1330   62.2120 N   0  0  0  0  0  0  0  0  0  0  0  0
  -32.0220   67.3480   62.3220 C   0  0  0  0  0  0  0  0  0  0  0  0
  -31.1969   68.2589   61.5870 O   0  0  0  0  0  0  0  0  0  0  0  0
  -32.1830   66.0840   61.5030 C   0  0  1  0  0  0  0  0  0  0  0  0
  -30.2154   65.0225   62.4176 O   0  0  0  0  0  0  0  0  0  0  0  0
  -30.8310   65.4230   61.1900 C   0  0  2  0  0  0  0  0  0  0  0  0
  -34.9746   65.8457   61.3210 O   0  0  0  0  0  0  0  0  0  0  0  0
  -29.9369   66.3439   60.4177 C   0  0  0  0  0  0  0  0  0  0  0  0
  -32.9308   70.4319   61.2513 O   0  0  0  0  0  0  0  0  0  0  0  0
  -29.0777   67.1898   60.9508 C   0  0  0  0  0  0  0  0  0  0  0  0
  -33.4310   71.8685   63.6467 O   0  0  0  0  0  0  0  0  0  0  0  0
  -28.1882   68.0854   60.1524 C   0  0  0  0  0  0  0  0  0  0  0  0
  -32.0199   70.3807   65.4572 O   0  0  0  0  0  0  0  0  0  0  0  0
  -27.2763   67.2744   59.2294 C   0  0  0  0  0  0  0  0  0  0  0  0
  -30.2839   69.2401   63.4665 O   0  0  0  0  0  0  0  0  0  0  0  0
  -28.0180   66.4222   58.2124 C   0  0  0  0  0  0  0  0  0  0  0  0
  -29.8754   69.1472   66.2254 O   0  0  0  0  0  0  0  0  0  0  0  0
  -27.1147   65.6033   57.3062 C   0  0  0  0  0  0  0  0  0  0  0  0
  -32.8754   73.0302   65.6835 O   0  0  0  0  0  0  0  0  0  0  0  0
  -27.8633   64.7658   56.2796 C   0  0  0  0  0  0  0  0  0  0  0  0
  -34.9434   73.6356   64.3904 O   0  5  0  0  0  0  0  0  0  0  0  0
  -26.9531   63.9359   55.3874 C   0  0  0  0  0  0  0  0  0  0  0  0
  -32.7693   74.1557   63.5908 O   0  0  0  0  0  0  0  0  0  0  0  0
  -26.1030   62.9317   56.1458 C   0  0  0  0  0  0  0  0  0  0  0  0
  -25.1801   62.1119   55.2635 C   0  0  0  0  0  0  0  0  0  0  0  0
  -25.9035   61.2992   54.2034 C   0  0  0  0  0  0  0  0  0  0  0  0
  -26.8977   60.3129   54.7876 C   0  0  0  0  0  0  0  0  0  0  0  0
  -26.2883   59.2944   55.7318 C   0  0  0  0  0  0  0  0  0  0  0  0
  -25.6326   59.9375   56.9380 C   0  0  0  0  0  0  0  0  0  0  0  0
  -25.0097   58.9199   57.8713 C   0  0  0  0  0  0  0  0  0  0  0  0
  -34.3610   65.0876   62.0665 C   0  0  0  0  0  0  0  0  0  0  0  0
  -35.0703   64.0312   62.8766 C   0  0  0  0  0  0  0  0  0  0  0  0
  -34.1128   63.2023   63.7231 C   0  0  0  0  0  0  0  0  0  0  0  0
  -33.3436   64.0417   64.7305 C   0  0  0  0  0  0  0  0  0  0  0  0
  -34.2275   64.7619   65.7351 C   0  0  0  0  0  0  0  0  0  0  0  0
  -33.4573   65.6149   66.7319 C   0  0  0  0  0  0  0  0  0  0  0  0
  -34.3389   66.3252   67.7512 C   0  0  0  0  0  0  0  0  0  0  0  0
  -35.1566   65.3814   68.6236 C   0  0  0  0  0  0  0  0  0  0  0  0
  -36.0584   66.0786   69.6391 C   0  0  0  0  0  0  0  0  0  0  0  0
  -35.3089   66.9716   70.6266 C   0  0  0  0  0  0  0  0  0  0  0  0
  -36.1969   67.6634   71.6607 C   0  0  0  0  0  0  0  0  0  0  0  0
  -37.2643   68.5654   71.0407 C   0  0  0  0  0  0  0  0  0  0  0  0
  -38.1625   69.2889   72.0439 C   0  0  0  0  0  0  0  0  0  0  0  0
  -39.2411   70.1782   71.4195 C   0  0  0  0  0  0  0  0  0  0  0  0
  -40.1989   69.4124   70.5532 C   0  0  0  0  0  0  0  0  0  0  0  0
  -41.2169   69.9199   69.8809 C   0  0  0  0  0  0  0  0  0  0  0  0
  -41.6185   71.3633   69.8456 C   0  0  0  0  0  0  0  0  0  0  0  0
  -42.2783   71.7857   68.5312 C   0  0  0  0  0  0  0  0  0  0  0  0
  -41.3860   71.5761   67.3150 C   0  0  0  0  0  0  0  0  0  0  0  0
  -42.0350   72.0122   66.0062 C   0  0  0  0  0  0  0  0  0  0  0  0
  -42.4052   73.4898   65.9468 C   0  0  0  0  0  0  0  0  0  0  0  0
  -41.2145   74.4264   66.0956 C   0  0  0  0  0  0  0  0  0  0  0  0
  -41.5753   75.9029   66.0546 C   0  0  0  0  0  0  0  0  0  0  0  0
  -42.5222   76.3092   67.1656 C   0  0  0  0  0  0  0  0  0  0  0  0
  -30.9530   69.4703   62.2406 C   0  0  2  0  0  0  0  0  0  0  0  0
  -32.2933   70.1495   62.4906 C   0  0  1  0  0  0  0  0  0  0  0  0
  -32.0829   71.4352   63.2803 C   0  0  2  0  0  0  0  0  0  0  0  0
  -31.2728   71.1754   64.5419 C   0  0  2  0  0  0  0  0  0  0  0  0
  -29.9796   70.4491   64.1802 C   0  0  1  0  0  0  0  0  0  0  0  0
  -29.1637   70.0508   65.3877 C   0  0  0  0  0  0  0  0  0  0  0  0
  -33.5968   73.2117   64.4786 S   0  0  0  0  0  0  0  0  0  0  0  0
  -32.6087   64.4935   62.8279 H   0  0  0  0  0  0  0  0  0  0  0  0
  -32.9806   67.7896   62.4978 H   0  0  0  0  0  0  0  0  0  0  0  0
  -31.5704   67.1208   63.2650 H   0  0  0  0  0  0  0  0  0  0  0  0
  -32.6374   66.3625   60.5752 H   0  0  0  0  0  0  0  0  0  0  0  0
  -30.8116   64.4280   62.8994 H   0  0  0  0  0  0  0  0  0  0  0  0
  -30.9971   64.5628   60.5757 H   0  0  0  0  0  0  0  0  0  0  0  0
  -29.9982   66.3137   59.3879 H   0  0  0  0  0  0  0  0  0  0  0  0
  -33.0591   69.6065   60.7582 H   0  0  0  0  0  0  0  0  0  0  0  0
  -29.0162   67.2360   61.9799 H   0  0  0  0  0  0  0  0  0  0  0  0
  -27.5846   68.6640   60.8199 H   0  0  0  0  0  0  0  0  0  0  0  0
  -28.8004   68.7238   59.5503 H   0  0  0  0  0  0  0  0  0  0  0  0
  -32.8421   70.8405   65.6883 H   0  0  0  0  0  0  0  0  0  0  0  0
  -26.6757   66.6279   59.8346 H   0  0  0  0  0  0  0  0  0  0  0  0
  -26.6951   67.9803   58.6737 H   0  0  0  0  0  0  0  0  0  0  0  0
  -28.6091   67.0702   57.5995 H   0  0  0  0  0  0  0  0  0  0  0  0
  -28.6079   65.7244   58.7691 H   0  0  0  0  0  0  0  0  0  0  0  0
  -29.3250   68.9123   66.9889 H   0  0  0  0  0  0  0  0  0  0  0  0
  -26.5324   64.9455   57.9170 H   0  0  0  0  0  0  0  0  0  0  0  0
  -26.5126   66.2983   56.7591 H   0  0  0  0  0  0  0  0  0  0  0  0
  -33.3703   72.4373   66.2704 H   0  0  0  0  0  0  0  0  0  0  0  0
  -28.4359   65.4236   55.6596 H   0  0  0  0  0  0  0  0  0  0  0  0
  -28.4783   64.0798   56.8238 H   0  0  0  0  0  0  0  0  0  0  0  0
  -26.3008   64.6000   54.8597 H   0  0  0  0  0  0  0  0  0  0  0  0
  -27.5857   63.3763   54.7305 H   0  0  0  0  0  0  0  0  0  0  0  0
  -31.8354   73.8960   63.6252 H   0  0  0  0  0  0  0  0  0  0  0  0
  -26.7565   62.2611   56.6636 H   0  0  0  0  0  0  0  0  0  0  0  0
  -25.4786   63.4934   56.8087 H   0  0  0  0  0  0  0  0  0  0  0  0
  -24.6289   61.4386   55.8863 H   0  0  0  0  0  0  0  0  0  0  0  0
  -24.5484   62.8040   54.7469 H   0  0  0  0  0  0  0  0  0  0  0  0
  -25.1772   60.7555   53.6361 H   0  0  0  0  0  0  0  0  0  0  0  0
  -26.4540   61.9856   53.5946 H   0  0  0  0  0  0  0  0  0  0  0  0
  -27.3602   59.7855   53.9795 H   0  0  0  0  0  0  0  0  0  0  0  0
  -27.5936   60.8858   55.3640 H   0  0  0  0  0  0  0  0  0  0  0  0
  -25.5499   58.7321   55.1993 H   0  0  0  0  0  0  0  0  0  0  0  0
  -27.0796   58.6683   56.0880 H   0  0  0  0  0  0  0  0  0  0  0  0
  -26.3736   60.4895   57.4776 H   0  0  0  0  0  0  0  0  0  0  0  0
  -24.8497   60.5738   56.5817 H   0  0  0  0  0  0  0  0  0  0  0  0
  -25.7701   58.2667   58.2455 H   0  0  0  0  0  0  0  0  0  0  0  0
  -24.5403   59.4261   58.6888 H   0  0  0  0  0  0  0  0  0  0  0  0
  -24.2786   58.3481   57.3388 H   0  0  0  0  0  0  0  0  0  0  0  0
  -35.5902   63.3777   62.2076 H   0  0  0  0  0  0  0  0  0  0  0  0
  -35.7431   64.5303   63.5424 H   0  0  0  0  0  0  0  0  0  0  0  0
  -33.4125   62.7194   63.0740 H   0  0  0  0  0  0  0  0  0  0  0  0
  -34.6972   62.4936   64.2719 H   0  0  0  0  0  0  0  0  0  0  0  0
  -32.7760   64.7740   64.1953 H   0  0  0  0  0  0  0  0  0  0  0  0
  -32.7252   63.3690   65.2873 H   0  0  0  0  0  0  0  0  0  0  0  0
  -34.7859   64.0291   66.2791 H   0  0  0  0  0  0  0  0  0  0  0  0
  -34.8552   65.4253   65.1776 H   0  0  0  0  0  0  0  0  0  0  0  0
  -32.9086   66.3551   66.1880 H   0  0  0  0  0  0  0  0  0  0  0  0
  -32.8221   64.9517   67.2810 H   0  0  0  0  0  0  0  0  0  0  0  0
  -35.0139   66.9666   67.2241 H   0  0  0  0  0  0  0  0  0  0  0  0
  -33.6857   66.8647   68.4047 H   0  0  0  0  0  0  0  0  0  0  0  0
  -34.4789   64.7486   69.1576 H   0  0  0  0  0  0  0  0  0  0  0  0
  -35.8028   64.8408   67.9639 H   0  0  0  0  0  0  0  0  0  0  0  0
  -36.5822   65.3287   70.1943 H   0  0  0  0  0  0  0  0  0  0  0  0
  -36.7154   66.7148   69.0838 H   0  0  0  0  0  0  0  0  0  0  0  0
  -34.7949   67.7268   70.0696 H   0  0  0  0  0  0  0  0  0  0  0  0
  -34.6493   66.3310   71.1739 H   0  0  0  0  0  0  0  0  0  0  0  0
  -35.5758   68.2603   72.2955 H   0  0  0  0  0  0  0  0  0  0  0  0
  -36.7089   66.8948   72.2010 H   0  0  0  0  0  0  0  0  0  0  0  0
  -37.8864   67.9609   70.4143 H   0  0  0  0  0  0  0  0  0  0  0  0
  -36.7370   69.3286   70.5074 H   0  0  0  0  0  0  0  0  0  0  0  0
  -37.5422   69.9035   72.6624 H   0  0  0  0  0  0  0  0  0  0  0  0
  -38.6801   68.5264   72.5874 H   0  0  0  0  0  0  0  0  0  0  0  0
  -38.7634   70.9263   70.8220 H   0  0  0  0  0  0  0  0  0  0  0  0
  -39.8056   70.6090   72.2199 H   0  0  0  0  0  0  0  0  0  0  0  0
  -40.0480   68.3945   70.4757 H   0  0  0  0  0  0  0  0  0  0  0  0
  -41.7883   69.2613   69.3289 H   0  0  0  0  0  0  0  0  0  0  0  0
  -40.7433   71.9613   69.9918 H   0  0  0  0  0  0  0  0  0  0  0  0
  -42.3436   71.5054   70.6195 H   0  0  0  0  0  0  0  0  0  0  0  0
  -42.5276   72.8243   68.5946 H   0  0  0  0  0  0  0  0  0  0  0  0
  -43.1439   71.1707   68.3990 H   0  0  0  0  0  0  0  0  0  0  0  0
  -41.1468   70.5356   67.2449 H   0  0  0  0  0  0  0  0  0  0  0  0
  -40.5153   72.1825   67.4534 H   0  0  0  0  0  0  0  0  0  0  0  0
  -42.9274   71.4381   65.8679 H   0  0  0  0  0  0  0  0  0  0  0  0
  -41.3095   71.8487   65.2369 H   0  0  0  0  0  0  0  0  0  0  0  0
  -43.0979   73.6963   66.7357 H   0  0  0  0  0  0  0  0  0  0  0  0
  -42.8237   73.6681   64.9783 H   0  0  0  0  0  0  0  0  0  0  0  0
  -40.5284   74.2263   65.2993 H   0  0  0  0  0  0  0  0  0  0  0  0
  -40.7941   74.2389   67.0615 H   0  0  0  0  0  0  0  0  0  0  0  0
  -42.0407   76.1147   65.1147 H   0  0  0  0  0  0  0  0  0  0  0  0
  -40.6701   76.4584   66.1847 H   0  0  0  0  0  0  0  0  0  0  0  0
  -43.4413   75.7706   67.0657 H   0  0  0  0  0  0  0  0  0  0  0  0
  -42.7157   77.3597   67.1029 H   0  0  0  0  0  0  0  0  0  0  0  0
  -42.0781   76.0843   68.1128 H   0  0  0  0  0  0  0  0  0  0  0  0
  -30.3291   70.0960   61.6371 H   0  0  0  0  0  0  0  0  0  0  0  0
  -32.9193   69.4938   63.0591 H   0  0  0  0  0  0  0  0  0  0  0  0
  -31.5471   72.1651   62.7102 H   0  0  0  0  0  0  0  0  0  0  0  0
  -31.0444   72.1140   65.0021 H   0  0  0  0  0  0  0  0  0  0  0  0
  -29.4118   71.1378   63.5901 H   0  0  0  0  0  0  0  0  0  0  0  0
  -28.2611   69.5805   65.0573 H   0  0  0  0  0  0  0  0  0  0  0  0
  -28.9495   70.9336   65.9532 H   0  0  0  0  0  0  0  0  0  0  0  0
  1  4  1  0  0  0  0
  1 31  1  0  0  0  0
  1 62  1  0  0  0  0
  2  3  1  0  0  0  0
  2  4  1  0  0  0  0
  2 63  1  0  0  0  0
  2 64  1  0  0  0  0
  3 55  1  0  0  0  0
  4  6  1  0  0  0  0
  4 65  1  6  0  0  0
  5  6  1  0  0  0  0
  5 66  1  0  0  0  0
  6  8  1  0  0  0  0
  6 67  1  6  0  0  0
  7 31  2  0  0  0  0
  8 10  2  0  0  0  0
  8 68  1  0  0  0  0
  9 56  1  0  0  0  0
  9 69  1  0  0  0  0
 10 12  1  0  0  0  0
 10 70  1  0  0  0  0
 11 57  1  0  0  0  0
 11 61  1  0  0  0  0
 12 14  1  0  0  0  0
 12 71  1  0  0  0  0
 12 72  1  0  0  0  0
 13 58  1  0  0  0  0
 13 73  1  0  0  0  0
 14 16  1  0  0  0  0
 14 74  1  0  0  0  0
 14 75  1  0  0  0  0
 15 55  1  0  0  0  0
 15 59  1  0  0  0  0
 16 18  1  0  0  0  0
 16 76  1  0  0  0  0
 16 77  1  0  0  0  0
 17 60  1  0  0  0  0
 17 78  1  0  0  0  0
 18 20  1  0  0  0  0
 18 79  1  0  0  0  0
 18 80  1  0  0  0  0
 19 61  1  0  0  0  0
 19 81  1  0  0  0  0
 20 22  1  0  0  0  0
 20 82  1  0  0  0  0
 20 83  1  0  0  0  0
 21 61  1  0  0  0  0
 22 24  1  0  0  0  0
 22 84  1  0  0  0  0
 22 85  1  0  0  0  0
 23 61  1  0  0  0  0
 23 86  1  0  0  0  0
 24 25  1  0  0  0  0
 24 87  1  0  0  0  0
 24 88  1  0  0  0  0
 25 26  1  0  0  0  0
 25 89  1  0  0  0  0
 25 90  1  0  0  0  0
 26 27  1  0  0  0  0
 26 91  1  0  0  0  0
 26 92  1  0  0  0  0
 27 28  1  0  0  0  0
 27 93  1  0  0  0  0
 27 94  1  0  0  0  0
 28 29  1  0  0  0  0
 28 95  1  0  0  0  0
 28 96  1  0  0  0  0
 29 30  1  0  0  0  0
 29 97  1  0  0  0  0
 29 98  1  0  0  0  0
 30 99  1  0  0  0  0
 30100  1  0  0  0  0
 30101  1  0  0  0  0
 31 32  1  0  0  0  0
 32 33  1  0  0  0  0
 32102  1  0  0  0  0
 32103  1  0  0  0  0
 33 34  1  0  0  0  0
 33104  1  0  0  0  0
 33105  1  0  0  0  0
 34 35  1  0  0  0  0
 34106  1  0  0  0  0
 34107  1  0  0  0  0
 35 36  1  0  0  0  0
 35108  1  0  0  0  0
 35109  1  0  0  0  0
 36 37  1  0  0  0  0
 36110  1  0  0  0  0
 36111  1  0  0  0  0
 37 38  1  0  0  0  0
 37112  1  0  0  0  0
 37113  1  0  0  0  0
 38 39  1  0  0  0  0
 38114  1  0  0  0  0
 38115  1  0  0  0  0
 39 40  1  0  0  0  0
 39116  1  0  0  0  0
 39117  1  0  0  0  0
 40 41  1  0  0  0  0
 40118  1  0  0  0  0
 40119  1  0  0  0  0
 41 42  1  0  0  0  0
 41120  1  0  0  0  0
 41121  1  0  0  0  0
 42 43  1  0  0  0  0
 42122  1  0  0  0  0
 42123  1  0  0  0  0
 43 44  1  0  0  0  0
 43124  1  0  0  0  0
 43125  1  0  0  0  0
 44 45  1  0  0  0  0
 44126  1  0  0  0  0
 44127  1  0  0  0  0
 45 46  2  0  0  0  0
 45128  1  0  0  0  0
 46 47  1  0  0  0  0
 46129  1  0  0  0  0
 47 48  1  0  0  0  0
 47130  1  0  0  0  0
 47131  1  0  0  0  0
 48 49  1  0  0  0  0
 48132  1  0  0  0  0
 48133  1  0  0  0  0
 49 50  1  0  0  0  0
 49134  1  0  0  0  0
 49135  1  0  0  0  0
 50 51  1  0  0  0  0
 50136  1  0  0  0  0
 50137  1  0  0  0  0
 51 52  1  0  0  0  0
 51138  1  0  0  0  0
 51139  1  0  0  0  0
 52 53  1  0  0  0  0
 52140  1  0  0  0  0
 52141  1  0  0  0  0
 53 54  1  0  0  0  0
 53142  1  0  0  0  0
 53143  1  0  0  0  0
 54144  1  0  0  0  0
 54145  1  0  0  0  0
 54146  1  0  0  0  0
 55 56  1  0  0  0  0
 55147  1  6  0  0  0
 56 57  1  0  0  0  0
 56148  1  1  0  0  0
 57 58  1  0  0  0  0
 57149  1  6  0  0  0
 58 59  1  0  0  0  0
 58150  1  1  0  0  0
 59 60  1  0  0  0  0
 59151  1  6  0  0  0
 60152  1  0  0  0  0
 60153  1  0  0  0  0
M  CHG  1  21  -1
M  END
$$$$