/media/chris/experiments/cd1a-new-docking/inputs/ligands/7ryn_ligand.pdb
 OpenBabel07032312553D

153153  0  0  1  0  0  0  0  0999 V2000
  -33.0340   65.1330   62.2120 N   0  0  0  0  0  0  0  0  0  0  0  0
  -32.0220   67.3480   62.3220 C   0  0  0  0  0  0  0  0  0  0  0  0
  -31.1969   68.2589   61.5870 O   0  0  0  0  0  0  0  0  0  0  0  0
  -32.1830   66.0840   61.5030 C   0  0  1  0  0  0  0  0  0  0  0  0
  -31.0548   64.2805   60.3587 O   0  0  0  0  0  0  0  0  0  0  0  0
  -30.8310   65.4230   61.1900 C   0  0  2  0  0  0  0  0  0  0  0  0
  -34.5420   63.4616   62.1958 O   0  0  0  0  0  0  0  0  0  0  0  0
  -30.1054   65.0399   62.4433 C   0  0  0  0  0  0  0  0  0  0  0  0
  -28.8256   69.6743   61.1237 O   0  0  0  0  0  0  0  0  0  0  0  0
  -29.2560   65.8107   63.0932 C   0  0  0  0  0  0  0  0  0  0  0  0
  -29.1955   72.4811   60.9310 O   0  0  0  0  0  0  0  0  0  0  0  0
  -28.5590   65.4049   64.3502 C   0  0  0  0  0  0  0  0  0  0  0  0
  -31.9137   72.6716   61.1716 O   0  0  0  0  0  0  0  0  0  0  0  0
  -29.4088   64.4215   65.1577 C   0  0  0  0  0  0  0  0  0  0  0  0
  -32.1725   70.1372   62.5085 O   0  0  0  0  0  0  0  0  0  0  0  0
  -30.7684   64.9638   65.5679 C   0  0  0  0  0  0  0  0  0  0  0  0
  -33.3185   73.1515   64.2067 O   0  0  0  0  0  0  0  0  0  0  0  0
  -30.7086   66.2187   66.4220 C   0  0  0  0  0  0  0  0  0  0  0  0
  -29.9935   74.6555   61.5959 O   0  0  0  0  0  0  0  0  0  0  0  0
  -32.0725   66.7462   66.8430 C   0  0  0  0  0  0  0  0  0  0  0  0
  -27.8592   74.4219   60.2899 O   0  5  0  0  0  0  0  0  0  0  0  0
  -32.9784   67.0993   65.6734 C   0  0  0  0  0  0  0  0  0  0  0  0
  -28.0162   73.7536   62.5626 O   0  0  0  0  0  0  0  0  0  0  0  0
  -33.2927   65.9230   64.7660 C   0  0  0  0  0  0  0  0  0  0  0  0
  -34.1824   66.2718   63.5874 C   0  0  0  0  0  0  0  0  0  0  0  0
  -35.5345   66.8397   63.9838 C   0  0  0  0  0  0  0  0  0  0  0  0
  -36.4141   67.1655   62.7911 C   0  0  0  0  0  0  0  0  0  0  0  0
  -37.7662   67.7507   63.1514 C   0  0  0  0  0  0  0  0  0  0  0  0
  -37.6515   69.0575   63.9114 C   0  0  0  0  0  0  0  0  0  0  0  0
  -39.0023   69.6318   64.2853 C   0  0  0  0  0  0  0  0  0  0  0  0
  -33.8200   64.2493   61.5913 C   0  0  0  0  0  0  0  0  0  0  0  0
  -33.7740   64.2810   60.0839 C   0  0  0  0  0  0  0  0  0  0  0  0
  -33.3190   62.9564   59.4847 C   0  0  0  0  0  0  0  0  0  0  0  0
  -33.2552   62.9908   57.9661 C   0  0  0  0  0  0  0  0  0  0  0  0
  -32.2853   64.0219   57.4134 C   0  0  0  0  0  0  0  0  0  0  0  0
  -30.8424   63.8013   57.8423 C   0  0  0  0  0  0  0  0  0  0  0  0
  -30.2603   62.4661   57.3960 C   0  0  0  0  0  0  0  0  0  0  0  0
  -28.8212   62.2408   57.8414 C   0  0  0  0  0  0  0  0  0  0  0  0
  -27.8308   63.2879   57.3381 C   0  0  0  0  0  0  0  0  0  0  0  0
  -28.1372   64.7096   57.8060 C   0  0  0  0  0  0  0  0  0  0  0  0
  -27.1637   65.7720   57.2960 C   0  0  0  0  0  0  0  0  0  0  0  0
  -27.4848   67.1814   57.7938 C   0  0  0  0  0  0  0  0  0  0  0  0
  -26.5429   68.2755   57.2915 C   0  0  0  0  0  0  0  0  0  0  0  0
  -25.0705   68.0795   57.6626 C   0  0  0  0  0  0  0  0  0  0  0  0
  -24.8463   68.0156   59.1457 C   0  0  0  0  0  0  0  0  0  0  0  0
  -25.1490   68.9588   60.0201 C   0  0  0  0  0  0  0  0  0  0  0  0
  -25.7800   70.2816   59.7072 C   0  0  0  0  0  0  0  0  0  0  0  0
  -25.3688   71.4009   60.6662 C   0  0  0  0  0  0  0  0  0  0  0  0
  -25.7214   71.1092   62.1187 C   0  0  0  0  0  0  0  0  0  0  0  0
  -25.0435   69.8582   62.6662 C   0  0  0  0  0  0  0  0  0  0  0  0
  -23.5200   69.9098   62.6556 C   0  0  0  0  0  0  0  0  0  0  0  0
  -22.9391   71.0389   63.4951 C   0  0  0  0  0  0  0  0  0  0  0  0
  -21.4204   71.1095   63.4776 C   0  0  0  0  0  0  0  0  0  0  0  0
  -20.8569   71.3367   62.0894 C   0  0  0  0  0  0  0  0  0  0  0  0
  -30.9530   69.4703   62.2406 C   0  0  2  0  0  0  0  0  0  0  0  0
  -30.0721   70.3242   61.3379 C   0  0  1  0  0  0  0  0  0  0  0  0
  -29.8516   71.6915   61.9728 C   0  0  2  0  0  0  0  0  0  0  0  0
  -31.1762   72.3417   62.3441 C   0  0  2  0  0  0  0  0  0  0  0  0
  -31.9954   71.3819   63.2035 C   0  0  1  0  0  0  0  0  0  0  0  0
  -33.3762   71.9033   63.5259 C   0  0  0  0  0  0  0  0  0  0  0  0
  -28.7943   73.9833   61.2565 S   0  0  0  0  0  0  0  0  0  0  0  0
  -33.0282   65.1436   63.1964 H   0  0  0  0  0  0  0  0  0  0  0  0
  -32.9806   67.7896   62.4978 H   0  0  0  0  0  0  0  0  0  0  0  0
  -31.5704   67.1208   63.2650 H   0  0  0  0  0  0  0  0  0  0  0  0
  -32.6374   66.3625   60.5752 H   0  0  0  0  0  0  0  0  0  0  0  0
  -31.5249   64.5525   59.5551 H   0  0  0  0  0  0  0  0  0  0  0  0
  -30.2105   66.1253   60.6735 H   0  0  0  0  0  0  0  0  0  0  0  0
  -30.2845   64.0992   62.8281 H   0  0  0  0  0  0  0  0  0  0  0  0
  -28.9790   68.8059   60.7197 H   0  0  0  0  0  0  0  0  0  0  0  0
  -29.0613   66.7494   62.7110 H   0  0  0  0  0  0  0  0  0  0  0  0
  -28.3733   66.2756   64.9437 H   0  0  0  0  0  0  0  0  0  0  0  0
  -27.6391   64.9247   64.0892 H   0  0  0  0  0  0  0  0  0  0  0  0
  -31.3948   73.2814   60.6241 H   0  0  0  0  0  0  0  0  0  0  0  0
  -28.8696   64.1618   66.0447 H   0  0  0  0  0  0  0  0  0  0  0  0
  -29.5922   63.5801   64.5227 H   0  0  0  0  0  0  0  0  0  0  0  0
  -31.2785   64.2045   66.1230 H   0  0  0  0  0  0  0  0  0  0  0  0
  -31.2769   65.2312   64.6652 H   0  0  0  0  0  0  0  0  0  0  0  0
  -34.2189   73.4572   64.3982 H   0  0  0  0  0  0  0  0  0  0  0  0
  -30.2102   66.9828   65.8629 H   0  0  0  0  0  0  0  0  0  0  0  0
  -30.1870   65.9581   67.3192 H   0  0  0  0  0  0  0  0  0  0  0  0
  -30.5119   74.8176   60.7922 H   0  0  0  0  0  0  0  0  0  0  0  0
  -31.9267   67.6254   67.4350 H   0  0  0  0  0  0  0  0  0  0  0  0
  -32.5563   65.9628   67.3881 H   0  0  0  0  0  0  0  0  0  0  0  0
  -32.4970   67.8564   65.0902 H   0  0  0  0  0  0  0  0  0  0  0  0
  -33.9076   67.4311   66.0875 H   0  0  0  0  0  0  0  0  0  0  0  0
  -28.6262   73.4506   63.2533 H   0  0  0  0  0  0  0  0  0  0  0  0
  -33.7845   65.1715   65.3477 H   0  0  0  0  0  0  0  0  0  0  0  0
  -32.3609   65.5872   64.3611 H   0  0  0  0  0  0  0  0  0  0  0  0
  -34.3452   65.3835   63.0136 H   0  0  0  0  0  0  0  0  0  0  0  0
  -33.6767   67.0332   63.0311 H   0  0  0  0  0  0  0  0  0  0  0  0
  -35.3761   67.7364   64.5456 H   0  0  0  0  0  0  0  0  0  0  0  0
  -36.0393   66.0917   64.5587 H   0  0  0  0  0  0  0  0  0  0  0  0
  -36.5762   66.2637   62.2385 H   0  0  0  0  0  0  0  0  0  0  0  0
  -35.8982   67.9136   62.2263 H   0  0  0  0  0  0  0  0  0  0  0  0
  -38.2938   67.0457   63.7594 H   0  0  0  0  0  0  0  0  0  0  0  0
  -38.2865   67.9512   62.2382 H   0  0  0  0  0  0  0  0  0  0  0  0
  -37.1349   69.7665   63.2987 H   0  0  0  0  0  0  0  0  0  0  0  0
  -37.1198   68.8602   64.8187 H   0  0  0  0  0  0  0  0  0  0  0  0
  -39.5598   69.8403   63.3961 H   0  0  0  0  0  0  0  0  0  0  0  0
  -38.8642   70.5364   64.8400 H   0  0  0  0  0  0  0  0  0  0  0  0
  -39.5373   68.9245   64.8840 H   0  0  0  0  0  0  0  0  0  0  0  0
  -33.0933   65.0477   59.7778 H   0  0  0  0  0  0  0  0  0  0  0  0
  -34.7666   64.4720   59.7329 H   0  0  0  0  0  0  0  0  0  0  0  0
  -34.0068   62.1923   59.7812 H   0  0  0  0  0  0  0  0  0  0  0  0
  -32.3308   62.7609   59.8454 H   0  0  0  0  0  0  0  0  0  0  0  0
  -34.2328   63.2140   57.5929 H   0  0  0  0  0  0  0  0  0  0  0  0
  -32.9030   62.0317   57.6484 H   0  0  0  0  0  0  0  0  0  0  0  0
  -32.5932   64.9894   57.7510 H   0  0  0  0  0  0  0  0  0  0  0  0
  -32.3101   63.9323   56.3474 H   0  0  0  0  0  0  0  0  0  0  0  0
  -30.7982   63.8475   58.9104 H   0  0  0  0  0  0  0  0  0  0  0  0
  -30.2595   64.5657   57.3722 H   0  0  0  0  0  0  0  0  0  0  0  0
  -30.2927   62.4248   56.3273 H   0  0  0  0  0  0  0  0  0  0  0  0
  -30.8510   61.7008   57.8547 H   0  0  0  0  0  0  0  0  0  0  0  0
  -28.5063   61.2833   57.4823 H   0  0  0  0  0  0  0  0  0  0  0  0
  -28.8191   62.3090   58.9092 H   0  0  0  0  0  0  0  0  0  0  0  0
  -27.8434   63.2758   56.2682 H   0  0  0  0  0  0  0  0  0  0  0  0
  -26.8745   63.0286   57.7421 H   0  0  0  0  0  0  0  0  0  0  0  0
  -28.1133   64.7212   58.8757 H   0  0  0  0  0  0  0  0  0  0  0  0
  -29.0968   64.9605   57.4045 H   0  0  0  0  0  0  0  0  0  0  0  0
  -27.1952   65.7750   56.2265 H   0  0  0  0  0  0  0  0  0  0  0  0
  -26.1947   65.5181   57.6723 H   0  0  0  0  0  0  0  0  0  0  0  0
  -27.4433   67.1730   58.8630 H   0  0  0  0  0  0  0  0  0  0  0  0
  -28.4535   67.4209   57.4075 H   0  0  0  0  0  0  0  0  0  0  0  0
  -26.8679   69.2083   57.7027 H   0  0  0  0  0  0  0  0  0  0  0  0
  -26.5897   68.2442   56.2230 H   0  0  0  0  0  0  0  0  0  0  0  0
  -24.5066   68.8981   57.2668 H   0  0  0  0  0  0  0  0  0  0  0  0
  -24.7566   67.1437   57.2493 H   0  0  0  0  0  0  0  0  0  0  0  0
  -24.4155   67.1544   59.5170 H   0  0  0  0  0  0  0  0  0  0  0  0
  -24.9306   68.7668   61.0103 H   0  0  0  0  0  0  0  0  0  0  0  0
  -26.8430   70.1688   59.7555 H   0  0  0  0  0  0  0  0  0  0  0  0
  -25.4439   70.5658   58.7320 H   0  0  0  0  0  0  0  0  0  0  0  0
  -25.8655   72.3013   60.3703 H   0  0  0  0  0  0  0  0  0  0  0  0
  -24.3040   71.4909   60.6103 H   0  0  0  0  0  0  0  0  0  0  0  0
  -26.7811   70.9802   62.1913 H   0  0  0  0  0  0  0  0  0  0  0  0
  -25.3742   71.9372   62.7007 H   0  0  0  0  0  0  0  0  0  0  0  0
  -25.3539   69.0231   62.0736 H   0  0  0  0  0  0  0  0  0  0  0  0
  -25.3384   69.7757   63.6915 H   0  0  0  0  0  0  0  0  0  0  0  0
  -23.1936   70.0383   61.6447 H   0  0  0  0  0  0  0  0  0  0  0  0
  -23.1735   68.9924   63.0836 H   0  0  0  0  0  0  0  0  0  0  0  0
  -23.2572   70.9025   64.5075 H   0  0  0  0  0  0  0  0  0  0  0  0
  -23.2948   71.9537   63.0690 H   0  0  0  0  0  0  0  0  0  0  0  0
  -21.0313   70.1880   63.8574 H   0  0  0  0  0  0  0  0  0  0  0  0
  -21.1306   71.9433   64.0823 H   0  0  0  0  0  0  0  0  0  0  0  0
  -21.1288   70.5184   61.4558 H   0  0  0  0  0  0  0  0  0  0  0  0
  -19.7906   71.4063   62.1443 H   0  0  0  0  0  0  0  0  0  0  0  0
  -21.2535   72.2458   61.6879 H   0  0  0  0  0  0  0  0  0  0  0  0
  -30.4622   69.2932   63.1747 H   0  0  0  0  0  0  0  0  0  0  0  0
  -30.5589   70.4564   60.3943 H   0  0  0  0  0  0  0  0  0  0  0  0
  -29.2758   71.6206   62.8719 H   0  0  0  0  0  0  0  0  0  0  0  0
  -30.9761   73.2382   62.8929 H   0  0  0  0  0  0  0  0  0  0  0  0
  -31.4476   71.2644   64.1151 H   0  0  0  0  0  0  0  0  0  0  0  0
  -33.9213   72.0300   62.6139 H   0  0  0  0  0  0  0  0  0  0  0  0
  -33.8606   71.1952   64.1653 H   0  0  0  0  0  0  0  0  0  0  0  0
  1  4  1  0  0  0  0
  1 31  1  0  0  0  0
  1 62  1  0  0  0  0
  2  3  1  0  0  0  0
  2  4  1  0  0  0  0
  2 63  1  0  0  0  0
  2 64  1  0  0  0  0
  3 55  1  0  0  0  0
  4  6  1  0  0  0  0
  4 65  1  6  0  0  0
  5  6  1  0  0  0  0
  5 66  1  0  0  0  0
  6  8  1  0  0  0  0
  6 67  1  6  0  0  0
  7 31  2  0  0  0  0
  8 10  2  0  0  0  0
  8 68  1  0  0  0  0
  9 56  1  0  0  0  0
  9 69  1  0  0  0  0
 10 12  1  0  0  0  0
 10 70  1  0  0  0  0
 11 57  1  0  0  0  0
 11 61  1  0  0  0  0
 12 14  1  0  0  0  0
 12 71  1  0  0  0  0
 12 72  1  0  0  0  0
 13 58  1  0  0  0  0
 13 73  1  0  0  0  0
 14 16  1  0  0  0  0
 14 74  1  0  0  0  0
 14 75  1  0  0  0  0
 15 55  1  0  0  0  0
 15 59  1  0  0  0  0
 16 18  1  0  0  0  0
 16 76  1  0  0  0  0
 16 77  1  0  0  0  0
 17 60  1  0  0  0  0
 17 78  1  0  0  0  0
 18 20  1  0  0  0  0
 18 79  1  0  0  0  0
 18 80  1  0  0  0  0
 19 61  1  0  0  0  0
 19 81  1  0  0  0  0
 20 22  1  0  0  0  0
 20 82  1  0  0  0  0
 20 83  1  0  0  0  0
 21 61  1  0  0  0  0
 22 24  1  0  0  0  0
 22 84  1  0  0  0  0
 22 85  1  0  0  0  0
 23 61  1  0  0  0  0
 23 86  1  0  0  0  0
 24 25  1  0  0  0  0
 24 87  1  0  0  0  0
 24 88  1  0  0  0  0
 25 26  1  0  0  0  0
 25 89  1  0  0  0  0
 25 90  1  0  0  0  0
 26 27  1  0  0  0  0
 26 91  1  0  0  0  0
 26 92  1  0  0  0  0
 27 28  1  0  0  0  0
 27 93  1  0  0  0  0
 27 94  1  0  0  0  0
 28 29  1  0  0  0  0
 28 95  1  0  0  0  0
 28 96  1  0  0  0  0
 29 30  1  0  0  0  0
 29 97  1  0  0  0  0
 29 98  1  0  0  0  0
 30 99  1  0  0  0  0
 30100  1  0  0  0  0
 30101  1  0  0  0  0
 31 32  1  0  0  0  0
 32 33  1  0  0  0  0
 32102  1  0  0  0  0
 32103  1  0  0  0  0
 33 34  1  0  0  0  0
 33104  1  0  0  0  0
 33105  1  0  0  0  0
 34 35  1  0  0  0  0
 34106  1  0  0  0  0
 34107  1  0  0  0  0
 35 36  1  0  0  0  0
 35108  1  0  0  0  0
 35109  1  0  0  0  0
 36 37  1  0  0  0  0
 36110  1  0  0  0  0
 36111  1  0  0  0  0
 37 38  1  0  0  0  0
 37112  1  0  0  0  0
 37113  1  0  0  0  0
 38 39  1  0  0  0  0
 38114  1  0  0  0  0
 38115  1  0  0  0  0
 39 40  1  0  0  0  0
 39116  1  0  0  0  0
 39117  1  0  0  0  0
 40 41  1  0  0  0  0
 40118  1  0  0  0  0
 40119  1  0  0  0  0
 41 42  1  0  0  0  0
 41120  1  0  0  0  0
 41121  1  0  0  0  0
 42 43  1  0  0  0  0
 42122  1  0  0  0  0
 42123  1  0  0  0  0
 43 44  1  0  0  0  0
 43124  1  0  0  0  0
 43125  1  0  0  0  0
 44 45  1  0  0  0  0
 44126  1  0  0  0  0
 44127  1  0  0  0  0
 45 46  2  0  0  0  0
 45128  1  0  0  0  0
 46 47  1  0  0  0  0
 46129  1  0  0  0  0
 47 48  1  0  0  0  0
 47130  1  0  0  0  0
 47131  1  0  0  0  0
 48 49  1  0  0  0  0
 48132  1  0  0  0  0
 48133  1  0  0  0  0
 49 50  1  0  0  0  0
 49134  1  0  0  0  0
 49135  1  0  0  0  0
 50 51  1  0  0  0  0
 50136  1  0  0  0  0
 50137  1  0  0  0  0
 51 52  1  0  0  0  0
 51138  1  0  0  0  0
 51139  1  0  0  0  0
 52 53  1  0  0  0  0
 52140  1  0  0  0  0
 52141  1  0  0  0  0
 53 54  1  0  0  0  0
 53142  1  0  0  0  0
 53143  1  0  0  0  0
 54144  1  0  0  0  0
 54145  1  0  0  0  0
 54146  1  0  0  0  0
 55 56  1  0  0  0  0
 55147  1  1  0  0  0
 56 57  1  0  0  0  0
 56148  1  6  0  0  0
 57 58  1  0  0  0  0
 57149  1  1  0  0  0
 58 59  1  0  0  0  0
 58150  1  1  0  0  0
 59 60  1  0  0  0  0
 59151  1  1  0  0  0
 60152  1  0  0  0  0
 60153  1  0  0  0  0
M  CHG  1  21  -1
M  END
$$$$