/media/chris/experiments/cd1a-new-docking/inputs/ligands/7ryn_ligand.pdb
 OpenBabel07032312553D

153153  0  0  1  0  0  0  0  0999 V2000
  -33.0340   65.1330   62.2120 N   0  0  0  0  0  0  0  0  0  0  0  0
  -32.0220   67.3480   62.3220 C   0  0  0  0  0  0  0  0  0  0  0  0
  -31.1969   68.2589   61.5870 O   0  0  0  0  0  0  0  0  0  0  0  0
  -32.1830   66.0840   61.5030 C   0  0  1  0  0  0  0  0  0  0  0  0
  -29.9992   66.3678   60.5104 O   0  0  0  0  0  0  0  0  0  0  0  0
  -30.8310   65.4230   61.1900 C   0  0  2  0  0  0  0  0  0  0  0  0
  -34.2576   66.6787   63.2990 O   0  0  0  0  0  0  0  0  0  0  0  0
  -31.0055   64.1786   60.3744 C   0  0  0  0  0  0  0  0  0  0  0  0
  -28.8256   69.6743   61.1237 O   0  0  0  0  0  0  0  0  0  0  0  0
  -30.2096   63.1284   60.4144 C   0  0  0  0  0  0  0  0  0  0  0  0
  -29.1955   72.4811   60.9310 O   0  0  0  0  0  0  0  0  0  0  0  0
  -30.4192   61.8950   59.5986 C   0  0  0  0  0  0  0  0  0  0  0  0
  -31.9137   72.6716   61.1716 O   0  0  0  0  0  0  0  0  0  0  0  0
  -31.6680   62.0196   58.7235 C   0  0  0  0  0  0  0  0  0  0  0  0
  -32.1725   70.1372   62.5085 O   0  0  0  0  0  0  0  0  0  0  0  0
  -31.9583   60.7931   57.8737 C   0  0  0  0  0  0  0  0  0  0  0  0
  -33.3185   73.1515   64.2067 O   0  0  0  0  0  0  0  0  0  0  0  0
  -33.1884   60.9213   56.9915 C   0  0  0  0  0  0  0  0  0  0  0  0
  -28.2009   74.5050   60.0814 O   0  0  0  0  0  0  0  0  0  0  0  0
  -34.4763   61.1808   57.7594 C   0  0  0  0  0  0  0  0  0  0  0  0
  -28.2208   74.0289   62.5489 O   0  5  0  0  0  0  0  0  0  0  0  0
  -34.8164   60.0934   58.7669 C   0  0  0  0  0  0  0  0  0  0  0  0
  -30.2001   74.5960   61.3668 O   0  0  0  0  0  0  0  0  0  0  0  0
  -34.9852   58.7170   58.1479 C   0  0  0  0  0  0  0  0  0  0  0  0
  -35.3413   57.6302   59.1451 C   0  0  0  0  0  0  0  0  0  0  0  0
  -36.6514   57.8704   59.8755 C   0  0  0  0  0  0  0  0  0  0  0  0
  -37.8462   57.9428   58.9429 C   0  0  0  0  0  0  0  0  0  0  0  0
  -38.0894   56.6808   58.1376 C   0  0  0  0  0  0  0  0  0  0  0  0
  -38.3598   55.4735   59.0139 C   0  0  0  0  0  0  0  0  0  0  0  0
  -39.5898   55.6492   59.8804 C   0  0  0  0  0  0  0  0  0  0  0  0
  -34.0033   65.5031   63.0532 C   0  0  0  0  0  0  0  0  0  0  0  0
  -34.7826   64.3775   63.6864 C   0  0  0  0  0  0  0  0  0  0  0  0
  -34.3013   63.0053   63.2326 C   0  0  0  0  0  0  0  0  0  0  0  0
  -32.8464   62.7463   63.5898 C   0  0  0  0  0  0  0  0  0  0  0  0
  -32.5621   62.7848   65.0821 C   0  0  0  0  0  0  0  0  0  0  0  0
  -33.3331   61.7458   65.8823 C   0  0  0  0  0  0  0  0  0  0  0  0
  -33.0314   60.3069   65.4831 C   0  0  0  0  0  0  0  0  0  0  0  0
  -31.5724   59.9090   65.6658 C   0  0  0  0  0  0  0  0  0  0  0  0
  -31.2504   58.4747   65.2540 C   0  0  0  0  0  0  0  0  0  0  0  0
  -32.0424   57.4153   66.0186 C   0  0  0  0  0  0  0  0  0  0  0  0
  -31.7185   55.9731   65.6291 C   0  0  0  0  0  0  0  0  0  0  0  0
  -32.5377   54.9362   66.3978 C   0  0  0  0  0  0  0  0  0  0  0  0
  -32.3722   54.9772   67.9168 C   0  0  0  0  0  0  0  0  0  0  0  0
  -30.9411   54.7609   68.4159 C   0  0  0  0  0  0  0  0  0  0  0  0
  -30.3691   53.4391   67.9919 C   0  0  0  0  0  0  0  0  0  0  0  0
  -29.4773   52.7272   68.6580 C   0  0  0  0  0  0  0  0  0  0  0  0
  -28.8593   53.0949   69.9729 C   0  0  0  0  0  0  0  0  0  0  0  0
  -29.7684   53.9453   70.8628 C   0  0  0  0  0  0  0  0  0  0  0  0
  -29.1254   54.3282   72.1892 C   0  0  0  0  0  0  0  0  0  0  0  0
  -30.0357   55.1612   73.0845 C   0  0  0  0  0  0  0  0  0  0  0  0
  -29.4103   55.5727   74.4124 C   0  0  0  0  0  0  0  0  0  0  0  0
  -28.1606   56.4287   74.2621 C   0  0  0  0  0  0  0  0  0  0  0  0
  -27.5193   56.8305   75.5808 C   0  0  0  0  0  0  0  0  0  0  0  0
  -27.0704   55.6406   76.4046 C   0  0  0  0  0  0  0  0  0  0  0  0
  -30.9530   69.4703   62.2406 C   0  0  2  0  0  0  0  0  0  0  0  0
  -30.0721   70.3242   61.3379 C   0  0  1  0  0  0  0  0  0  0  0  0
  -29.8516   71.6915   61.9728 C   0  0  2  0  0  0  0  0  0  0  0  0
  -31.1762   72.3417   62.3441 C   0  0  2  0  0  0  0  0  0  0  0  0
  -31.9954   71.3819   63.2035 C   0  0  1  0  0  0  0  0  0  0  0  0
  -33.3762   71.9033   63.5259 C   0  0  0  0  0  0  0  0  0  0  0  0
  -28.7943   73.9833   61.2565 S   0  0  0  0  0  0  0  0  0  0  0  0
  -32.8861   64.1712   62.0627 H   0  0  0  0  0  0  0  0  0  0  0  0
  -32.9806   67.7896   62.4978 H   0  0  0  0  0  0  0  0  0  0  0  0
  -31.5704   67.1208   63.2650 H   0  0  0  0  0  0  0  0  0  0  0  0
  -32.6374   66.3625   60.5752 H   0  0  0  0  0  0  0  0  0  0  0  0
  -29.9008   67.1635   61.0564 H   0  0  0  0  0  0  0  0  0  0  0  0
  -30.3647   65.1308   62.1077 H   0  0  0  0  0  0  0  0  0  0  0  0
  -31.8115   64.1406   59.7311 H   0  0  0  0  0  0  0  0  0  0  0  0
  -28.9790   68.8059   60.7197 H   0  0  0  0  0  0  0  0  0  0  0  0
  -29.3943   63.1604   61.0462 H   0  0  0  0  0  0  0  0  0  0  0  0
  -30.5341   61.0574   60.2545 H   0  0  0  0  0  0  0  0  0  0  0  0
  -29.5698   61.7599   58.9620 H   0  0  0  0  0  0  0  0  0  0  0  0
  -31.3948   73.2814   60.6241 H   0  0  0  0  0  0  0  0  0  0  0  0
  -31.5379   62.8571   58.0704 H   0  0  0  0  0  0  0  0  0  0  0  0
  -32.4986   62.1370   59.3878 H   0  0  0  0  0  0  0  0  0  0  0  0
  -32.1004   59.9582   58.5277 H   0  0  0  0  0  0  0  0  0  0  0  0
  -31.1220   60.6696   57.2178 H   0  0  0  0  0  0  0  0  0  0  0  0
  -34.2189   73.4572   64.3982 H   0  0  0  0  0  0  0  0  0  0  0  0
  -33.3030   60.0117   56.4398 H   0  0  0  0  0  0  0  0  0  0  0  0
  -33.0287   61.7694   56.3589 H   0  0  0  0  0  0  0  0  0  0  0  0
  -27.3087   74.1382   59.9795 H   0  0  0  0  0  0  0  0  0  0  0  0
  -35.2799   61.2537   57.0566 H   0  0  0  0  0  0  0  0  0  0  0  0
  -34.3342   62.0860   58.3119 H   0  0  0  0  0  0  0  0  0  0  0  0
  -35.7313   60.3589   59.2541 H   0  0  0  0  0  0  0  0  0  0  0  0
  -33.9936   60.0305   59.4480 H   0  0  0  0  0  0  0  0  0  0  0  0
  -30.6278   74.5827   60.4963 H   0  0  0  0  0  0  0  0  0  0  0  0
  -34.0660   58.4477   57.6711 H   0  0  0  0  0  0  0  0  0  0  0  0
  -35.8021   58.7853   57.4603 H   0  0  0  0  0  0  0  0  0  0  0  0
  -34.5574   57.5687   59.8708 H   0  0  0  0  0  0  0  0  0  0  0  0
  -35.4577   56.7238   58.5884 H   0  0  0  0  0  0  0  0  0  0  0  0
  -36.5794   58.7948   60.4095 H   0  0  0  0  0  0  0  0  0  0  0  0
  -36.8082   57.0405   60.5324 H   0  0  0  0  0  0  0  0  0  0  0  0
  -37.6889   58.7509   58.2594 H   0  0  0  0  0  0  0  0  0  0  0  0
  -38.7084   58.0815   59.5612 H   0  0  0  0  0  0  0  0  0  0  0  0
  -37.2241   56.4835   57.5399 H   0  0  0  0  0  0  0  0  0  0  0  0
  -38.9573   56.8438   57.5334 H   0  0  0  0  0  0  0  0  0  0  0  0
  -37.5132   55.3136   59.6484 H   0  0  0  0  0  0  0  0  0  0  0  0
  -38.5327   54.6367   58.3700 H   0  0  0  0  0  0  0  0  0  0  0  0
  -39.4471   56.4814   60.5377 H   0  0  0  0  0  0  0  0  0  0  0  0
  -39.7493   54.7623   60.4573 H   0  0  0  0  0  0  0  0  0  0  0  0
  -40.4418   55.8280   59.2582 H   0  0  0  0  0  0  0  0  0  0  0  0
  -35.8140   64.4836   63.4224 H   0  0  0  0  0  0  0  0  0  0  0  0
  -34.6384   64.4382   64.7449 H   0  0  0  0  0  0  0  0  0  0  0  0
  -34.4101   62.9383   62.1703 H   0  0  0  0  0  0  0  0  0  0  0  0
  -34.8937   62.2714   63.7380 H   0  0  0  0  0  0  0  0  0  0  0  0
  -32.2447   63.4916   63.1129 H   0  0  0  0  0  0  0  0  0  0  0  0
  -32.6161   61.7564   63.2553 H   0  0  0  0  0  0  0  0  0  0  0  0
  -32.8227   63.7552   65.4500 H   0  0  0  0  0  0  0  0  0  0  0  0
  -31.5224   62.5646   65.2065 H   0  0  0  0  0  0  0  0  0  0  0  0
  -34.3792   61.9215   65.7422 H   0  0  0  0  0  0  0  0  0  0  0  0
  -33.0301   61.8538   66.9029 H   0  0  0  0  0  0  0  0  0  0  0  0
  -33.2879   60.1825   64.4518 H   0  0  0  0  0  0  0  0  0  0  0  0
  -33.6082   59.6779   66.1285 H   0  0  0  0  0  0  0  0  0  0  0  0
  -31.3217   60.0240   66.6996 H   0  0  0  0  0  0  0  0  0  0  0  0
  -31.0009   60.5454   65.0230 H   0  0  0  0  0  0  0  0  0  0  0  0
  -30.2080   58.3023   65.4227 H   0  0  0  0  0  0  0  0  0  0  0  0
  -31.5225   58.3803   64.2235 H   0  0  0  0  0  0  0  0  0  0  0  0
  -33.0838   57.5834   65.8394 H   0  0  0  0  0  0  0  0  0  0  0  0
  -31.7712   57.5190   67.0485 H   0  0  0  0  0  0  0  0  0  0  0  0
  -30.6810   55.7952   65.8209 H   0  0  0  0  0  0  0  0  0  0  0  0
  -31.9639   55.8638   64.5934 H   0  0  0  0  0  0  0  0  0  0  0  0
  -32.2451   53.9645   66.0584 H   0  0  0  0  0  0  0  0  0  0  0  0
  -33.5650   55.1634   66.2032 H   0  0  0  0  0  0  0  0  0  0  0  0
  -32.9906   54.2129   68.3392 H   0  0  0  0  0  0  0  0  0  0  0  0
  -32.6504   55.9643   68.2222 H   0  0  0  0  0  0  0  0  0  0  0  0
  -30.9417   54.8058   69.4850 H   0  0  0  0  0  0  0  0  0  0  0  0
  -30.3313   55.5279   67.9860 H   0  0  0  0  0  0  0  0  0  0  0  0
  -30.7038   53.0502   67.0965 H   0  0  0  0  0  0  0  0  0  0  0  0
  -29.1786   51.8352   68.2335 H   0  0  0  0  0  0  0  0  0  0  0  0
  -27.9619   53.6457   69.7822 H   0  0  0  0  0  0  0  0  0  0  0  0
  -28.6734   52.1812   70.4978 H   0  0  0  0  0  0  0  0  0  0  0  0
  -30.6606   53.3906   71.0654 H   0  0  0  0  0  0  0  0  0  0  0  0
  -29.9697   54.8536   70.3342 H   0  0  0  0  0  0  0  0  0  0  0  0
  -28.2397   54.8933   71.9863 H   0  0  0  0  0  0  0  0  0  0  0  0
  -28.9138   53.4189   72.7120 H   0  0  0  0  0  0  0  0  0  0  0  0
  -30.9153   54.5884   73.2925 H   0  0  0  0  0  0  0  0  0  0  0  0
  -30.2424   56.0658   72.5517 H   0  0  0  0  0  0  0  0  0  0  0  0
  -29.1494   54.6862   74.9518 H   0  0  0  0  0  0  0  0  0  0  0  0
  -30.1355   56.1666   74.9284 H   0  0  0  0  0  0  0  0  0  0  0  0
  -28.4258   57.3198   73.7325 H   0  0  0  0  0  0  0  0  0  0  0  0
  -27.4414   55.8343   73.7385 H   0  0  0  0  0  0  0  0  0  0  0  0
  -28.2312   57.3908   76.1501 H   0  0  0  0  0  0  0  0  0  0  0  0
  -26.6489   57.4092   75.3516 H   0  0  0  0  0  0  0  0  0  0  0  0
  -27.9190   55.0379   76.6524 H   0  0  0  0  0  0  0  0  0  0  0  0
  -26.6028   55.9850   77.3033 H   0  0  0  0  0  0  0  0  0  0  0  0
  -26.3724   55.0587   75.8397 H   0  0  0  0  0  0  0  0  0  0  0  0
  -30.4622   69.2932   63.1747 H   0  0  0  0  0  0  0  0  0  0  0  0
  -30.5589   70.4564   60.3943 H   0  0  0  0  0  0  0  0  0  0  0  0
  -29.2758   71.6206   62.8719 H   0  0  0  0  0  0  0  0  0  0  0  0
  -30.9761   73.2382   62.8929 H   0  0  0  0  0  0  0  0  0  0  0  0
  -31.4476   71.2644   64.1151 H   0  0  0  0  0  0  0  0  0  0  0  0
  -33.9213   72.0300   62.6139 H   0  0  0  0  0  0  0  0  0  0  0  0
  -33.8606   71.1952   64.1653 H   0  0  0  0  0  0  0  0  0  0  0  0
  1  4  1  0  0  0  0
  1 31  1  0  0  0  0
  1 62  1  0  0  0  0
  2  3  1  0  0  0  0
  2  4  1  0  0  0  0
  2 63  1  0  0  0  0
  2 64  1  0  0  0  0
  3 55  1  0  0  0  0
  4  6  1  0  0  0  0
  4 65  1  6  0  0  0
  5  6  1  0  0  0  0
  5 66  1  0  0  0  0
  6  8  1  0  0  0  0
  6 67  1  1  0  0  0
  7 31  2  0  0  0  0
  8 10  2  0  0  0  0
  8 68  1  0  0  0  0
  9 56  1  0  0  0  0
  9 69  1  0  0  0  0
 10 12  1  0  0  0  0
 10 70  1  0  0  0  0
 11 57  1  0  0  0  0
 11 61  1  0  0  0  0
 12 14  1  0  0  0  0
 12 71  1  0  0  0  0
 12 72  1  0  0  0  0
 13 58  1  0  0  0  0
 13 73  1  0  0  0  0
 14 16  1  0  0  0  0
 14 74  1  0  0  0  0
 14 75  1  0  0  0  0
 15 55  1  0  0  0  0
 15 59  1  0  0  0  0
 16 18  1  0  0  0  0
 16 76  1  0  0  0  0
 16 77  1  0  0  0  0
 17 60  1  0  0  0  0
 17 78  1  0  0  0  0
 18 20  1  0  0  0  0
 18 79  1  0  0  0  0
 18 80  1  0  0  0  0
 19 61  1  0  0  0  0
 19 81  1  0  0  0  0
 20 22  1  0  0  0  0
 20 82  1  0  0  0  0
 20 83  1  0  0  0  0
 21 61  1  0  0  0  0
 22 24  1  0  0  0  0
 22 84  1  0  0  0  0
 22 85  1  0  0  0  0
 23 61  1  0  0  0  0
 23 86  1  0  0  0  0
 24 25  1  0  0  0  0
 24 87  1  0  0  0  0
 24 88  1  0  0  0  0
 25 26  1  0  0  0  0
 25 89  1  0  0  0  0
 25 90  1  0  0  0  0
 26 27  1  0  0  0  0
 26 91  1  0  0  0  0
 26 92  1  0  0  0  0
 27 28  1  0  0  0  0
 27 93  1  0  0  0  0
 27 94  1  0  0  0  0
 28 29  1  0  0  0  0
 28 95  1  0  0  0  0
 28 96  1  0  0  0  0
 29 30  1  0  0  0  0
 29 97  1  0  0  0  0
 29 98  1  0  0  0  0
 30 99  1  0  0  0  0
 30100  1  0  0  0  0
 30101  1  0  0  0  0
 31 32  1  0  0  0  0
 32 33  1  0  0  0  0
 32102  1  0  0  0  0
 32103  1  0  0  0  0
 33 34  1  0  0  0  0
 33104  1  0  0  0  0
 33105  1  0  0  0  0
 34 35  1  0  0  0  0
 34106  1  0  0  0  0
 34107  1  0  0  0  0
 35 36  1  0  0  0  0
 35108  1  0  0  0  0
 35109  1  0  0  0  0
 36 37  1  0  0  0  0
 36110  1  0  0  0  0
 36111  1  0  0  0  0
 37 38  1  0  0  0  0
 37112  1  0  0  0  0
 37113  1  0  0  0  0
 38 39  1  0  0  0  0
 38114  1  0  0  0  0
 38115  1  0  0  0  0
 39 40  1  0  0  0  0
 39116  1  0  0  0  0
 39117  1  0  0  0  0
 40 41  1  0  0  0  0
 40118  1  0  0  0  0
 40119  1  0  0  0  0
 41 42  1  0  0  0  0
 41120  1  0  0  0  0
 41121  1  0  0  0  0
 42 43  1  0  0  0  0
 42122  1  0  0  0  0
 42123  1  0  0  0  0
 43 44  1  0  0  0  0
 43124  1  0  0  0  0
 43125  1  0  0  0  0
 44 45  1  0  0  0  0
 44126  1  0  0  0  0
 44127  1  0  0  0  0
 45 46  2  0  0  0  0
 45128  1  0  0  0  0
 46 47  1  0  0  0  0
 46129  1  0  0  0  0
 47 48  1  0  0  0  0
 47130  1  0  0  0  0
 47131  1  0  0  0  0
 48 49  1  0  0  0  0
 48132  1  0  0  0  0
 48133  1  0  0  0  0
 49 50  1  0  0  0  0
 49134  1  0  0  0  0
 49135  1  0  0  0  0
 50 51  1  0  0  0  0
 50136  1  0  0  0  0
 50137  1  0  0  0  0
 51 52  1  0  0  0  0
 51138  1  0  0  0  0
 51139  1  0  0  0  0
 52 53  1  0  0  0  0
 52140  1  0  0  0  0
 52141  1  0  0  0  0
 53 54  1  0  0  0  0
 53142  1  0  0  0  0
 53143  1  0  0  0  0
 54144  1  0  0  0  0
 54145  1  0  0  0  0
 54146  1  0  0  0  0
 55 56  1  0  0  0  0
 55147  1  1  0  0  0
 56 57  1  0  0  0  0
 56148  1  6  0  0  0
 57 58  1  0  0  0  0
 57149  1  1  0  0  0
 58 59  1  0  0  0  0
 58150  1  1  0  0  0
 59 60  1  0  0  0  0
 59151  1  1  0  0  0
 60152  1  0  0  0  0
 60153  1  0  0  0  0
M  CHG  1  21  -1
M  END
$$$$