/media/chris/experiments/cd1a-new-docking/inputs/ligands/7ryn_ligand.pdb
 OpenBabel07032312553D

153153  0  0  1  0  0  0  0  0999 V2000
  -33.0340   65.1330   62.2120 N   0  0  0  0  0  0  0  0  0  0  0  0
  -32.0220   67.3480   62.3220 C   0  0  0  0  0  0  0  0  0  0  0  0
  -31.1969   68.2589   61.5870 O   0  0  0  0  0  0  0  0  0  0  0  0
  -32.1830   66.0840   61.5030 C   0  0  1  0  0  0  0  0  0  0  0  0
  -30.2154   65.0225   62.4176 O   0  0  0  0  0  0  0  0  0  0  0  0
  -30.8310   65.4230   61.1900 C   0  0  2  0  0  0  0  0  0  0  0  0
  -34.9746   65.8457   61.3210 O   0  0  0  0  0  0  0  0  0  0  0  0
  -29.9369   66.3439   60.4177 C   0  0  0  0  0  0  0  0  0  0  0  0
  -32.9308   70.4319   61.2513 O   0  0  0  0  0  0  0  0  0  0  0  0
  -29.0262   65.9607   59.5448 C   0  0  0  0  0  0  0  0  0  0  0  0
  -33.4310   71.8685   63.6467 O   0  0  0  0  0  0  0  0  0  0  0  0
  -28.1594   66.9053   58.7787 C   0  0  0  0  0  0  0  0  0  0  0  0
  -32.0199   70.3807   65.4572 O   0  0  0  0  0  0  0  0  0  0  0  0
  -29.0018   67.8617   57.9320 C   0  0  0  0  0  0  0  0  0  0  0  0
  -30.2839   69.2401   63.4665 O   0  0  0  0  0  0  0  0  0  0  0  0
  -29.9488   68.7369   58.7369 C   0  0  0  0  0  0  0  0  0  0  0  0
  -27.9496   69.4112   65.0113 O   0  0  0  0  0  0  0  0  0  0  0  0
  -30.7983   69.6752   57.8968 C   0  0  0  0  0  0  0  0  0  0  0  0
  -32.8754   73.0302   65.6835 O   0  0  0  0  0  0  0  0  0  0  0  0
  -31.7316   70.5602   58.7102 C   0  0  0  0  0  0  0  0  0  0  0  0
  -34.9434   73.6356   64.3904 O   0  5  0  0  0  0  0  0  0  0  0  0
  -32.5908   71.4846   57.8613 C   0  0  0  0  0  0  0  0  0  0  0  0
  -32.7693   74.1557   63.5908 O   0  0  0  0  0  0  0  0  0  0  0  0
  -33.5090   70.7532   56.8979 C   0  0  0  0  0  0  0  0  0  0  0  0
  -34.3569   71.6698   56.0358 C   0  0  0  0  0  0  0  0  0  0  0  0
  -35.2670   72.5923   56.8285 C   0  0  0  0  0  0  0  0  0  0  0  0
  -36.2431   71.8433   57.7167 C   0  0  0  0  0  0  0  0  0  0  0  0
  -37.1707   70.9016   56.9731 C   0  0  0  0  0  0  0  0  0  0  0  0
  -36.4216   69.8157   56.2259 C   0  0  0  0  0  0  0  0  0  0  0  0
  -37.3485   68.8862   55.4699 C   0  0  0  0  0  0  0  0  0  0  0  0
  -34.3610   65.0876   62.0665 C   0  0  0  0  0  0  0  0  0  0  0  0
  -35.0703   64.0312   62.8766 C   0  0  0  0  0  0  0  0  0  0  0  0
  -34.1128   63.2023   63.7231 C   0  0  0  0  0  0  0  0  0  0  0  0
  -33.3436   64.0417   64.7305 C   0  0  0  0  0  0  0  0  0  0  0  0
  -32.3670   63.2443   65.5789 C   0  0  0  0  0  0  0  0  0  0  0  0
  -33.0208   62.1394   66.3951 C   0  0  0  0  0  0  0  0  0  0  0  0
  -32.0473   61.3488   67.2600 C   0  0  0  0  0  0  0  0  0  0  0  0
  -31.3165   62.1933   68.2960 C   0  0  0  0  0  0  0  0  0  0  0  0
  -30.4855   63.3331   67.7124 C   0  0  0  0  0  0  0  0  0  0  0  0
  -29.3964   62.8761   66.7432 C   0  0  0  0  0  0  0  0  0  0  0  0
  -28.5447   64.0052   66.1635 C   0  0  0  0  0  0  0  0  0  0  0  0
  -29.3559   65.0434   65.3882 C   0  0  0  0  0  0  0  0  0  0  0  0
  -30.4212   65.7743   66.2053 C   0  0  0  0  0  0  0  0  0  0  0  0
  -29.8847   66.5767   67.3937 C   0  0  0  0  0  0  0  0  0  0  0  0
  -28.9290   67.6593   66.9827 C   0  0  0  0  0  0  0  0  0  0  0  0
  -28.3040   68.4948   67.7932 C   0  0  0  0  0  0  0  0  0  0  0  0
  -28.4212   68.5280   69.2869 C   0  0  0  0  0  0  0  0  0  0  0  0
  -27.1529   69.0130   69.9923 C   0  0  0  0  0  0  0  0  0  0  0  0
  -25.9317   68.1535   69.6936 C   0  0  0  0  0  0  0  0  0  0  0  0
  -24.6706   68.6249   70.4090 C   0  0  0  0  0  0  0  0  0  0  0  0
  -23.4287   67.7916   70.1140 C   0  0  0  0  0  0  0  0  0  0  0  0
  -23.5710   66.3241   70.4926 C   0  0  0  0  0  0  0  0  0  0  0  0
  -22.3315   65.4875   70.2180 C   0  0  0  0  0  0  0  0  0  0  0  0
  -21.1163   65.9644   70.9873 C   0  0  0  0  0  0  0  0  0  0  0  0
  -30.9530   69.4703   62.2406 C   0  0  2  0  0  0  0  0  0  0  0  0
  -32.2933   70.1495   62.4906 C   0  0  1  0  0  0  0  0  0  0  0  0
  -32.0829   71.4352   63.2803 C   0  0  2  0  0  0  0  0  0  0  0  0
  -31.2728   71.1754   64.5419 C   0  0  2  0  0  0  0  0  0  0  0  0
  -29.9796   70.4491   64.1802 C   0  0  1  0  0  0  0  0  0  0  0  0
  -29.1637   70.0508   65.3877 C   0  0  0  0  0  0  0  0  0  0  0  0
  -33.5968   73.2117   64.4786 S   0  0  0  0  0  0  0  0  0  0  0  0
  -32.6087   64.4935   62.8279 H   0  0  0  0  0  0  0  0  0  0  0  0
  -32.9806   67.7896   62.4978 H   0  0  0  0  0  0  0  0  0  0  0  0
  -31.5704   67.1208   63.2650 H   0  0  0  0  0  0  0  0  0  0  0  0
  -32.6374   66.3625   60.5752 H   0  0  0  0  0  0  0  0  0  0  0  0
  -30.8116   64.4280   62.8994 H   0  0  0  0  0  0  0  0  0  0  0  0
  -30.9971   64.5628   60.5757 H   0  0  0  0  0  0  0  0  0  0  0  0
  -30.0419   67.3574   60.5817 H   0  0  0  0  0  0  0  0  0  0  0  0
  -33.0591   69.6065   60.7582 H   0  0  0  0  0  0  0  0  0  0  0  0
  -28.9053   64.9489   59.3813 H   0  0  0  0  0  0  0  0  0  0  0  0
  -27.5145   66.3442   58.1350 H   0  0  0  0  0  0  0  0  0  0  0  0
  -27.5866   67.4819   59.4747 H   0  0  0  0  0  0  0  0  0  0  0  0
  -32.8421   70.8405   65.6883 H   0  0  0  0  0  0  0  0  0  0  0  0
  -29.5828   67.2803   57.2469 H   0  0  0  0  0  0  0  0  0  0  0  0
  -28.3175   68.5207   57.4399 H   0  0  0  0  0  0  0  0  0  0  0  0
  -29.3665   69.3270   59.4134 H   0  0  0  0  0  0  0  0  0  0  0  0
  -30.6254   68.0765   59.2379 H   0  0  0  0  0  0  0  0  0  0  0  0
  -27.4513   69.1691   65.8075 H   0  0  0  0  0  0  0  0  0  0  0  0
  -31.3908   69.0856   57.2289 H   0  0  0  0  0  0  0  0  0  0  0  0
  -30.1234   70.3271   57.3826 H   0  0  0  0  0  0  0  0  0  0  0  0
  -33.3703   72.4373   66.2704 H   0  0  0  0  0  0  0  0  0  0  0  0
  -31.1394   71.1599   59.3694 H   0  0  0  0  0  0  0  0  0  0  0  0
  -32.3981   69.9104   59.2379 H   0  0  0  0  0  0  0  0  0  0  0  0
  -31.9436   72.1204   57.2940 H   0  0  0  0  0  0  0  0  0  0  0  0
  -33.2169   72.0333   58.5334 H   0  0  0  0  0  0  0  0  0  0  0  0
  -31.8354   73.8960   63.6252 H   0  0  0  0  0  0  0  0  0  0  0  0
  -34.1633   70.1266   57.4672 H   0  0  0  0  0  0  0  0  0  0  0  0
  -32.8806   70.1978   56.2334 H   0  0  0  0  0  0  0  0  0  0  0  0
  -34.9650   71.0641   55.3969 H   0  0  0  0  0  0  0  0  0  0  0  0
  -33.6817   72.2943   55.4890 H   0  0  0  0  0  0  0  0  0  0  0  0
  -35.8241   73.1943   56.1415 H   0  0  0  0  0  0  0  0  0  0  0  0
  -34.6447   73.1851   57.4659 H   0  0  0  0  0  0  0  0  0  0  0  0
  -36.8419   72.5619   58.2363 H   0  0  0  0  0  0  0  0  0  0  0  0
  -35.6550   71.2373   58.3738 H   0  0  0  0  0  0  0  0  0  0  0  0
  -37.7434   71.4691   56.2697 H   0  0  0  0  0  0  0  0  0  0  0  0
  -37.7968   70.4240   57.6975 H   0  0  0  0  0  0  0  0  0  0  0  0
  -35.8586   69.2401   56.9306 H   0  0  0  0  0  0  0  0  0  0  0  0
  -35.7855   70.2932   55.5101 H   0  0  0  0  0  0  0  0  0  0  0  0
  -37.9994   68.3922   56.1607 H   0  0  0  0  0  0  0  0  0  0  0  0
  -36.7698   68.1576   54.9416 H   0  0  0  0  0  0  0  0  0  0  0  0
  -37.9310   69.4524   54.7734 H   0  0  0  0  0  0  0  0  0  0  0  0
  -35.5902   63.3777   62.2076 H   0  0  0  0  0  0  0  0  0  0  0  0
  -35.7431   64.5303   63.5424 H   0  0  0  0  0  0  0  0  0  0  0  0
  -33.4125   62.7194   63.0740 H   0  0  0  0  0  0  0  0  0  0  0  0
  -34.6972   62.4936   64.2719 H   0  0  0  0  0  0  0  0  0  0  0  0
  -34.0479   64.5147   65.3825 H   0  0  0  0  0  0  0  0  0  0  0  0
  -32.7648   64.7460   64.1702 H   0  0  0  0  0  0  0  0  0  0  0  0
  -31.8784   63.9170   66.2525 H   0  0  0  0  0  0  0  0  0  0  0  0
  -31.6841   62.7707   64.9050 H   0  0  0  0  0  0  0  0  0  0  0  0
  -33.4989   61.4606   65.7203 H   0  0  0  0  0  0  0  0  0  0  0  0
  -33.7113   62.6137   67.0608 H   0  0  0  0  0  0  0  0  0  0  0  0
  -31.3191   60.8961   66.6199 H   0  0  0  0  0  0  0  0  0  0  0  0
  -32.6255   60.6276   67.7989 H   0  0  0  0  0  0  0  0  0  0  0  0
  -30.6622   61.5518   68.8486 H   0  0  0  0  0  0  0  0  0  0  0  0
  -32.0703   62.6473   68.9047 H   0  0  0  0  0  0  0  0  0  0  0  0
  -30.0186   63.8568   68.5203 H   0  0  0  0  0  0  0  0  0  0  0  0
  -31.1571   63.9511   67.1539 H   0  0  0  0  0  0  0  0  0  0  0  0
  -29.8669   62.3623   65.9310 H   0  0  0  0  0  0  0  0  0  0  0  0
  -28.7322   62.2537   67.3056 H   0  0  0  0  0  0  0  0  0  0  0  0
  -27.8206   63.5778   65.5016 H   0  0  0  0  0  0  0  0  0  0  0  0
  -28.0901   64.5125   66.9886 H   0  0  0  0  0  0  0  0  0  0  0  0
  -29.8442   64.5447   64.5771 H   0  0  0  0  0  0  0  0  0  0  0  0
  -28.6588   65.7904   65.0705 H   0  0  0  0  0  0  0  0  0  0  0  0
  -31.1102   65.0463   66.5798 H   0  0  0  0  0  0  0  0  0  0  0  0
  -30.8724   66.4837   65.5435 H   0  0  0  0  0  0  0  0  0  0  0  0
  -29.3779   65.9073   68.0570 H   0  0  0  0  0  0  0  0  0  0  0  0
  -30.7206   67.0483   67.8668 H   0  0  0  0  0  0  0  0  0  0  0  0
  -28.7429   67.7602   65.9726 H   0  0  0  0  0  0  0  0  0  0  0  0
  -27.6769   69.1890   67.3573 H   0  0  0  0  0  0  0  0  0  0  0  0
  -28.6419   67.5390   69.6306 H   0  0  0  0  0  0  0  0  0  0  0  0
  -29.1974   69.2252   69.5245 H   0  0  0  0  0  0  0  0  0  0  0  0
  -27.3261   69.0018   71.0482 H   0  0  0  0  0  0  0  0  0  0  0  0
  -26.9444   69.9974   69.6284 H   0  0  0  0  0  0  0  0  0  0  0  0
  -25.7516   68.1747   68.6391 H   0  0  0  0  0  0  0  0  0  0  0  0
  -26.1456   67.1665   70.0473 H   0  0  0  0  0  0  0  0  0  0  0  0
  -24.8523   68.5927   71.4630 H   0  0  0  0  0  0  0  0  0  0  0  0
  -24.4675   69.6121   70.0498 H   0  0  0  0  0  0  0  0  0  0  0  0
  -22.6075   68.2037   70.6625 H   0  0  0  0  0  0  0  0  0  0  0  0
  -23.2727   67.8274   69.0560 H   0  0  0  0  0  0  0  0  0  0  0  0
  -24.3853   65.9109   69.9348 H   0  0  0  0  0  0  0  0  0  0  0  0
  -23.7353   66.2934   71.5495 H   0  0  0  0  0  0  0  0  0  0  0  0
  -22.1131   65.5341   69.1716 H   0  0  0  0  0  0  0  0  0  0  0  0
  -22.5415   64.4879   70.5367 H   0  0  0  0  0  0  0  0  0  0  0  0
  -20.8773   66.9647   70.6922 H   0  0  0  0  0  0  0  0  0  0  0  0
  -20.2865   65.3225   70.7769 H   0  0  0  0  0  0  0  0  0  0  0  0
  -21.3270   65.9426   72.0361 H   0  0  0  0  0  0  0  0  0  0  0  0
  -30.3291   70.0960   61.6371 H   0  0  0  0  0  0  0  0  0  0  0  0
  -32.9193   69.4938   63.0591 H   0  0  0  0  0  0  0  0  0  0  0  0
  -31.5471   72.1651   62.7102 H   0  0  0  0  0  0  0  0  0  0  0  0
  -31.0444   72.1140   65.0021 H   0  0  0  0  0  0  0  0  0  0  0  0
  -29.4118   71.1378   63.5901 H   0  0  0  0  0  0  0  0  0  0  0  0
  -28.9326   70.9278   65.9555 H   0  0  0  0  0  0  0  0  0  0  0  0
  -29.7397   69.3608   65.9683 H   0  0  0  0  0  0  0  0  0  0  0  0
  1  4  1  0  0  0  0
  1 31  1  0  0  0  0
  1 62  1  0  0  0  0
  2  3  1  0  0  0  0
  2  4  1  0  0  0  0
  2 63  1  0  0  0  0
  2 64  1  0  0  0  0
  3 55  1  0  0  0  0
  4  6  1  0  0  0  0
  4 65  1  6  0  0  0
  5  6  1  0  0  0  0
  5 66  1  0  0  0  0
  6  8  1  0  0  0  0
  6 67  1  6  0  0  0
  7 31  2  0  0  0  0
  8 10  2  0  0  0  0
  8 68  1  0  0  0  0
  9 56  1  0  0  0  0
  9 69  1  0  0  0  0
 10 12  1  0  0  0  0
 10 70  1  0  0  0  0
 11 57  1  0  0  0  0
 11 61  1  0  0  0  0
 12 14  1  0  0  0  0
 12 71  1  0  0  0  0
 12 72  1  0  0  0  0
 13 58  1  0  0  0  0
 13 73  1  0  0  0  0
 14 16  1  0  0  0  0
 14 74  1  0  0  0  0
 14 75  1  0  0  0  0
 15 55  1  0  0  0  0
 15 59  1  0  0  0  0
 16 18  1  0  0  0  0
 16 76  1  0  0  0  0
 16 77  1  0  0  0  0
 17 60  1  0  0  0  0
 17 78  1  0  0  0  0
 18 20  1  0  0  0  0
 18 79  1  0  0  0  0
 18 80  1  0  0  0  0
 19 61  1  0  0  0  0
 19 81  1  0  0  0  0
 20 22  1  0  0  0  0
 20 82  1  0  0  0  0
 20 83  1  0  0  0  0
 21 61  1  0  0  0  0
 22 24  1  0  0  0  0
 22 84  1  0  0  0  0
 22 85  1  0  0  0  0
 23 61  1  0  0  0  0
 23 86  1  0  0  0  0
 24 25  1  0  0  0  0
 24 87  1  0  0  0  0
 24 88  1  0  0  0  0
 25 26  1  0  0  0  0
 25 89  1  0  0  0  0
 25 90  1  0  0  0  0
 26 27  1  0  0  0  0
 26 91  1  0  0  0  0
 26 92  1  0  0  0  0
 27 28  1  0  0  0  0
 27 93  1  0  0  0  0
 27 94  1  0  0  0  0
 28 29  1  0  0  0  0
 28 95  1  0  0  0  0
 28 96  1  0  0  0  0
 29 30  1  0  0  0  0
 29 97  1  0  0  0  0
 29 98  1  0  0  0  0
 30 99  1  0  0  0  0
 30100  1  0  0  0  0
 30101  1  0  0  0  0
 31 32  1  0  0  0  0
 32 33  1  0  0  0  0
 32102  1  0  0  0  0
 32103  1  0  0  0  0
 33 34  1  0  0  0  0
 33104  1  0  0  0  0
 33105  1  0  0  0  0
 34 35  1  0  0  0  0
 34106  1  0  0  0  0
 34107  1  0  0  0  0
 35 36  1  0  0  0  0
 35108  1  0  0  0  0
 35109  1  0  0  0  0
 36 37  1  0  0  0  0
 36110  1  0  0  0  0
 36111  1  0  0  0  0
 37 38  1  0  0  0  0
 37112  1  0  0  0  0
 37113  1  0  0  0  0
 38 39  1  0  0  0  0
 38114  1  0  0  0  0
 38115  1  0  0  0  0
 39 40  1  0  0  0  0
 39116  1  0  0  0  0
 39117  1  0  0  0  0
 40 41  1  0  0  0  0
 40118  1  0  0  0  0
 40119  1  0  0  0  0
 41 42  1  0  0  0  0
 41120  1  0  0  0  0
 41121  1  0  0  0  0
 42 43  1  0  0  0  0
 42122  1  0  0  0  0
 42123  1  0  0  0  0
 43 44  1  0  0  0  0
 43124  1  0  0  0  0
 43125  1  0  0  0  0
 44 45  1  0  0  0  0
 44126  1  0  0  0  0
 44127  1  0  0  0  0
 45 46  2  0  0  0  0
 45128  1  0  0  0  0
 46 47  1  0  0  0  0
 46129  1  0  0  0  0
 47 48  1  0  0  0  0
 47130  1  0  0  0  0
 47131  1  0  0  0  0
 48 49  1  0  0  0  0
 48132  1  0  0  0  0
 48133  1  0  0  0  0
 49 50  1  0  0  0  0
 49134  1  0  0  0  0
 49135  1  0  0  0  0
 50 51  1  0  0  0  0
 50136  1  0  0  0  0
 50137  1  0  0  0  0
 51 52  1  0  0  0  0
 51138  1  0  0  0  0
 51139  1  0  0  0  0
 52 53  1  0  0  0  0
 52140  1  0  0  0  0
 52141  1  0  0  0  0
 53 54  1  0  0  0  0
 53142  1  0  0  0  0
 53143  1  0  0  0  0
 54144  1  0  0  0  0
 54145  1  0  0  0  0
 54146  1  0  0  0  0
 55 56  1  0  0  0  0
 55147  1  6  0  0  0
 56 57  1  0  0  0  0
 56148  1  1  0  0  0
 57 58  1  0  0  0  0
 57149  1  6  0  0  0
 58 59  1  0  0  0  0
 58150  1  1  0  0  0
 59 60  1  0  0  0  0
 59151  1  6  0  0  0
 60152  1  0  0  0  0
 60153  1  0  0  0  0
M  CHG  1  21  -1
M  END
$$$$