/media/chris/experiments/cd1a-new-docking/inputs/ligands/7ryn_ligand.pdb
 OpenBabel07032312553D

153153  0  0  1  0  0  0  0  0999 V2000
  -33.0340   65.1330   62.2120 N   0  0  0  0  0  0  0  0  0  0  0  0
  -32.0220   67.3480   62.3220 C   0  0  0  0  0  0  0  0  0  0  0  0
  -31.4051   67.0024   63.5673 O   0  0  0  0  0  0  0  0  0  0  0  0
  -32.1830   66.0840   61.5030 C   0  0  1  0  0  0  0  0  0  0  0  0
  -31.0548   64.2805   60.3587 O   0  0  0  0  0  0  0  0  0  0  0  0
  -30.8310   65.4230   61.1900 C   0  0  2  0  0  0  0  0  0  0  0  0
  -33.3937   66.4369   64.0115 O   0  0  0  0  0  0  0  0  0  0  0  0
  -30.1054   65.0399   62.4433 C   0  0  0  0  0  0  0  0  0  0  0  0
  -31.4046   66.6220   66.3415 O   0  0  0  0  0  0  0  0  0  0  0  0
  -29.2770   64.0208   62.5582 C   0  0  0  0  0  0  0  0  0  0  0  0
  -29.4155   68.1261   67.6954 O   0  0  0  0  0  0  0  0  0  0  0  0
  -28.5564   63.6732   63.8194 C   0  0  0  0  0  0  0  0  0  0  0  0
  -28.1411   69.3260   65.5933 O   0  0  0  0  0  0  0  0  0  0  0  0
  -27.2080   63.0152   63.5192 C   0  0  0  0  0  0  0  0  0  0  0  0
  -30.3909   69.0606   63.8198 O   0  0  0  0  0  0  0  0  0  0  0  0
  -26.4204   62.6159   64.7565 C   0  0  0  0  0  0  0  0  0  0  0  0
  -29.1056   72.3918   64.5510 O   0  0  0  0  0  0  0  0  0  0  0  0
  -26.0911   63.7707   65.6870 C   0  0  0  0  0  0  0  0  0  0  0  0
  -29.0352   66.5764   69.5011 O   0  0  0  0  0  0  0  0  0  0  0  0
  -25.2880   63.3663   66.9147 C   0  0  0  0  0  0  0  0  0  0  0  0
  -30.6879   66.0419   67.6849 O   0  5  0  0  0  0  0  0  0  0  0  0
  -24.9769   64.5248   67.8498 C   0  0  0  0  0  0  0  0  0  0  0  0
  -31.1144   67.7162   69.3133 O   0  0  0  0  0  0  0  0  0  0  0  0
  -24.1819   65.6418   67.1967 C   0  0  0  0  0  0  0  0  0  0  0  0
  -23.8534   66.7933   68.1286 C   0  0  0  0  0  0  0  0  0  0  0  0
  -25.0755   67.4714   68.7236 C   0  0  0  0  0  0  0  0  0  0  0  0
  -26.0065   68.0458   67.6720 C   0  0  0  0  0  0  0  0  0  0  0  0
  -26.5752   67.0193   66.7112 C   0  0  0  0  0  0  0  0  0  0  0  0
  -27.4851   67.6386   65.6686 C   0  0  0  0  0  0  0  0  0  0  0  0
  -28.0656   66.6099   64.7203 C   0  0  0  0  0  0  0  0  0  0  0  0
  -33.5723   65.3825   63.4087 C   0  0  0  0  0  0  0  0  0  0  0  0
  -34.4300   64.2814   63.9806 C   0  0  0  0  0  0  0  0  0  0  0  0
  -33.6565   62.9855   64.1884 C   0  0  0  0  0  0  0  0  0  0  0  0
  -32.4959   63.1442   65.1574 C   0  0  0  0  0  0  0  0  0  0  0  0
  -32.9132   63.5767   66.5531 C   0  0  0  0  0  0  0  0  0  0  0  0
  -33.8472   62.5968   67.2473 C   0  0  0  0  0  0  0  0  0  0  0  0
  -33.2507   61.2098   67.4503 C   0  0  0  0  0  0  0  0  0  0  0  0
  -31.9940   61.1986   68.3111 C   0  0  0  0  0  0  0  0  0  0  0  0
  -31.3744   59.8177   68.5100 C   0  0  0  0  0  0  0  0  0  0  0  0
  -30.9321   59.1418   67.2131 C   0  0  0  0  0  0  0  0  0  0  0  0
  -32.0509   58.9227   66.1950 C   0  0  0  0  0  0  0  0  0  0  0  0
  -31.5827   58.2296   64.9153 C   0  0  0  0  0  0  0  0  0  0  0  0
  -30.4899   58.9677   64.1423 C   0  0  0  0  0  0  0  0  0  0  0  0
  -30.0352   58.2794   62.8525 C   0  0  0  0  0  0  0  0  0  0  0  0
  -29.4897   56.9006   63.0882 C   0  0  0  0  0  0  0  0  0  0  0  0
  -29.5453   55.8864   62.2431 C   0  0  0  0  0  0  0  0  0  0  0  0
  -30.1620   55.9095   60.8773 C   0  0  0  0  0  0  0  0  0  0  0  0
  -29.4946   54.9544   59.8855 C   0  0  0  0  0  0  0  0  0  0  0  0
  -30.1170   54.9974   58.4962 C   0  0  0  0  0  0  0  0  0  0  0  0
  -29.4646   54.0341   57.5110 C   0  0  0  0  0  0  0  0  0  0  0  0
  -29.5506   52.5661   57.9126 C   0  0  0  0  0  0  0  0  0  0  0  0
  -30.9762   52.0485   58.0421 C   0  0  0  0  0  0  0  0  0  0  0  0
  -31.0731   50.5895   58.4589 C   0  0  0  0  0  0  0  0  0  0  0  0
  -32.5033   50.1000   58.5625 C   0  0  0  0  0  0  0  0  0  0  0  0
  -31.2104   68.0828   64.4327 C   0  0  2  0  0  0  0  0  0  0  0  0
  -30.5480   67.5584   65.7001 C   0  0  1  0  0  0  0  0  0  0  0  0
  -30.2364   68.7171   66.6389 C   0  0  2  0  0  0  0  0  0  0  0  0
  -29.4420   69.8007   65.9249 C   0  0  2  0  0  0  0  0  0  0  0  0
  -30.1703   70.2134   64.6482 C   0  0  1  0  0  0  0  0  0  0  0  0
  -29.3950   71.2080   63.8163 C   0  0  0  0  0  0  0  0  0  0  0  0
  -30.0256   66.9384   68.5560 S   0  0  0  0  0  0  0  0  0  0  0  0
  -33.2204   64.2647   61.7870 H   0  0  0  0  0  0  0  0  0  0  0  0
  -31.4053   68.0450   61.7940 H   0  0  0  0  0  0  0  0  0  0  0  0
  -32.9770   67.7979   62.4965 H   0  0  0  0  0  0  0  0  0  0  0  0
  -32.6374   66.3625   60.5752 H   0  0  0  0  0  0  0  0  0  0  0  0
  -31.5249   64.5525   59.5551 H   0  0  0  0  0  0  0  0  0  0  0  0
  -30.2105   66.1253   60.6735 H   0  0  0  0  0  0  0  0  0  0  0  0
  -30.2667   65.6189   63.2823 H   0  0  0  0  0  0  0  0  0  0  0  0
  -31.5955   65.8899   65.7345 H   0  0  0  0  0  0  0  0  0  0  0  0
  -29.1171   63.4287   61.7282 H   0  0  0  0  0  0  0  0  0  0  0  0
  -29.1568   62.9956   64.3896 H   0  0  0  0  0  0  0  0  0  0  0  0
  -28.3803   64.5738   64.3697 H   0  0  0  0  0  0  0  0  0  0  0  0
  -27.6765   69.0633   66.4032 H   0  0  0  0  0  0  0  0  0  0  0  0
  -26.6169   63.7044   62.9531 H   0  0  0  0  0  0  0  0  0  0  0  0
  -27.4186   62.1128   62.9842 H   0  0  0  0  0  0  0  0  0  0  0  0
  -25.5016   62.1687   64.4391 H   0  0  0  0  0  0  0  0  0  0  0  0
  -27.0406   61.9428   65.3107 H   0  0  0  0  0  0  0  0  0  0  0  0
  -28.6087   73.0074   63.9896 H   0  0  0  0  0  0  0  0  0  0  0  0
  -27.0095   64.2106   66.0155 H   0  0  0  0  0  0  0  0  0  0  0  0
  -25.4833   64.4532   65.1304 H   0  0  0  0  0  0  0  0  0  0  0  0
  -28.3292   66.0818   69.0563 H   0  0  0  0  0  0  0  0  0  0  0  0
  -24.3635   62.9382   66.5878 H   0  0  0  0  0  0  0  0  0  0  0  0
  -25.8871   62.6717   67.4656 H   0  0  0  0  0  0  0  0  0  0  0  0
  -24.4128   64.1484   68.6775 H   0  0  0  0  0  0  0  0  0  0  0  0
  -25.9145   64.9436   68.1506 H   0  0  0  0  0  0  0  0  0  0  0  0
  -30.6977   68.3443   69.9238 H   0  0  0  0  0  0  0  0  0  0  0  0
  -24.7522   66.0251   66.3765 H   0  0  0  0  0  0  0  0  0  0  0  0
  -23.2492   65.2178   66.8883 H   0  0  0  0  0  0  0  0  0  0  0  0
  -23.2972   67.5235   67.5787 H   0  0  0  0  0  0  0  0  0  0  0  0
  -23.2973   66.3829   68.9454 H   0  0  0  0  0  0  0  0  0  0  0  0
  -24.7480   68.2668   69.3600 H   0  0  0  0  0  0  0  0  0  0  0  0
  -25.6231   66.7273   69.2634 H   0  0  0  0  0  0  0  0  0  0  0  0
  -25.4626   68.7710   67.1037 H   0  0  0  0  0  0  0  0  0  0  0  0
  -26.8384   68.4662   68.1974 H   0  0  0  0  0  0  0  0  0  0  0  0
  -27.1351   66.2993   67.2706 H   0  0  0  0  0  0  0  0  0  0  0  0
  -25.7534   66.5666   66.1966 H   0  0  0  0  0  0  0  0  0  0  0  0
  -26.9221   68.3496   65.1007 H   0  0  0  0  0  0  0  0  0  0  0  0
  -28.3003   68.1028   66.1832 H   0  0  0  0  0  0  0  0  0  0  0  0
  -27.2724   66.1268   64.1891 H   0  0  0  0  0  0  0  0  0  0  0  0
  -28.7178   67.0946   64.0240 H   0  0  0  0  0  0  0  0  0  0  0  0
  -28.6169   65.8818   65.2779 H   0  0  0  0  0  0  0  0  0  0  0  0
  -35.2400   64.0930   63.3073 H   0  0  0  0  0  0  0  0  0  0  0  0
  -34.7806   64.6070   64.9377 H   0  0  0  0  0  0  0  0  0  0  0  0
  -33.2722   62.6611   63.2440 H   0  0  0  0  0  0  0  0  0  0  0  0
  -34.3321   62.2695   64.6077 H   0  0  0  0  0  0  0  0  0  0  0  0
  -31.8261   63.8796   64.7631 H   0  0  0  0  0  0  0  0  0  0  0  0
  -32.0386   62.1817   65.2543 H   0  0  0  0  0  0  0  0  0  0  0  0
  -33.4103   64.5213   66.4788 H   0  0  0  0  0  0  0  0  0  0  0  0
  -32.0217   63.6276   67.1426 H   0  0  0  0  0  0  0  0  0  0  0  0
  -34.7327   62.4987   66.6548 H   0  0  0  0  0  0  0  0  0  0  0  0
  -34.0447   62.9942   68.2209 H   0  0  0  0  0  0  0  0  0  0  0  0
  -33.0055   60.8047   66.4908 H   0  0  0  0  0  0  0  0  0  0  0  0
  -33.9857   60.6279   67.9660 H   0  0  0  0  0  0  0  0  0  0  0  0
  -32.2446   61.5941   69.2733 H   0  0  0  0  0  0  0  0  0  0  0  0
  -31.2656   61.7870   67.7933 H   0  0  0  0  0  0  0  0  0  0  0  0
  -32.0979   59.1899   68.9867 H   0  0  0  0  0  0  0  0  0  0  0  0
  -30.4942   59.9561   69.1024 H   0  0  0  0  0  0  0  0  0  0  0  0
  -30.5140   58.1882   67.4597 H   0  0  0  0  0  0  0  0  0  0  0  0
  -30.2281   59.8026   66.7520 H   0  0  0  0  0  0  0  0  0  0  0  0
  -32.4623   59.8752   65.9335 H   0  0  0  0  0  0  0  0  0  0  0  0
  -32.7738   58.2813   66.6544 H   0  0  0  0  0  0  0  0  0  0  0  0
  -32.4286   58.1188   64.2696 H   0  0  0  0  0  0  0  0  0  0  0  0
  -31.1550   57.2974   65.2201 H   0  0  0  0  0  0  0  0  0  0  0  0
  -29.6390   59.0676   64.7834 H   0  0  0  0  0  0  0  0  0  0  0  0
  -30.9118   59.9061   63.8487 H   0  0  0  0  0  0  0  0  0  0  0  0
  -29.2718   58.8756   62.3979 H   0  0  0  0  0  0  0  0  0  0  0  0
  -30.8930   58.1820   62.2204 H   0  0  0  0  0  0  0  0  0  0  0  0
  -29.0281   56.7289   63.9951 H   0  0  0  0  0  0  0  0  0  0  0  0
  -29.1252   54.9959   62.5521 H   0  0  0  0  0  0  0  0  0  0  0  0
  -30.0885   56.9043   60.4902 H   0  0  0  0  0  0  0  0  0  0  0  0
  -31.1767   55.5882   60.9867 H   0  0  0  0  0  0  0  0  0  0  0  0
  -29.5790   53.9574   60.2647 H   0  0  0  0  0  0  0  0  0  0  0  0
  -28.4748   55.2627   59.7856 H   0  0  0  0  0  0  0  0  0  0  0  0
  -30.0216   55.9916   58.1124 H   0  0  0  0  0  0  0  0  0  0  0  0
  -31.1398   54.7002   58.5987 H   0  0  0  0  0  0  0  0  0  0  0  0
  -28.4311   54.2964   57.4215 H   0  0  0  0  0  0  0  0  0  0  0  0
  -30.0013   54.1301   56.5903 H   0  0  0  0  0  0  0  0  0  0  0  0
  -29.0604   52.4449   58.8560 H   0  0  0  0  0  0  0  0  0  0  0  0
  -29.0829   52.0013   57.1334 H   0  0  0  0  0  0  0  0  0  0  0  0
  -31.4612   52.1600   57.0949 H   0  0  0  0  0  0  0  0  0  0  0  0
  -31.4426   52.6215   58.8162 H   0  0  0  0  0  0  0  0  0  0  0  0
  -30.6031   50.4751   59.4133 H   0  0  0  0  0  0  0  0  0  0  0  0
  -30.5880   50.0069   57.7039 H   0  0  0  0  0  0  0  0  0  0  0  0
  -33.0198   50.6632   59.3114 H   0  0  0  0  0  0  0  0  0  0  0  0
  -32.5072   49.0638   58.8295 H   0  0  0  0  0  0  0  0  0  0  0  0
  -32.9930   50.2271   57.6196 H   0  0  0  0  0  0  0  0  0  0  0  0
  -32.1486   68.5400   64.6687 H   0  0  0  0  0  0  0  0  0  0  0  0
  -29.6327   67.0681   65.4416 H   0  0  0  0  0  0  0  0  0  0  0  0
  -31.1294   69.1768   67.0080 H   0  0  0  0  0  0  0  0  0  0  0  0
  -29.3488   70.6437   66.5772 H   0  0  0  0  0  0  0  0  0  0  0  0
  -31.0858   70.6667   64.9665 H   0  0  0  0  0  0  0  0  0  0  0  0
  -28.4751   70.7586   63.5055 H   0  0  0  0  0  0  0  0  0  0  0  0
  -29.9937   71.4764   62.9711 H   0  0  0  0  0  0  0  0  0  0  0  0
  1  4  1  0  0  0  0
  1 31  1  0  0  0  0
  1 62  1  0  0  0  0
  2  3  1  0  0  0  0
  2  4  1  0  0  0  0
  2 63  1  0  0  0  0
  2 64  1  0  0  0  0
  3 55  1  0  0  0  0
  4  6  1  0  0  0  0
  4 65  1  6  0  0  0
  5  6  1  0  0  0  0
  5 66  1  0  0  0  0
  6  8  1  0  0  0  0
  6 67  1  6  0  0  0
  7 31  2  0  0  0  0
  8 10  2  0  0  0  0
  8 68  1  0  0  0  0
  9 56  1  0  0  0  0
  9 69  1  0  0  0  0
 10 12  1  0  0  0  0
 10 70  1  0  0  0  0
 11 57  1  0  0  0  0
 11 61  1  0  0  0  0
 12 14  1  0  0  0  0
 12 71  1  0  0  0  0
 12 72  1  0  0  0  0
 13 58  1  0  0  0  0
 13 73  1  0  0  0  0
 14 16  1  0  0  0  0
 14 74  1  0  0  0  0
 14 75  1  0  0  0  0
 15 55  1  0  0  0  0
 15 59  1  0  0  0  0
 16 18  1  0  0  0  0
 16 76  1  0  0  0  0
 16 77  1  0  0  0  0
 17 60  1  0  0  0  0
 17 78  1  0  0  0  0
 18 20  1  0  0  0  0
 18 79  1  0  0  0  0
 18 80  1  0  0  0  0
 19 61  1  0  0  0  0
 19 81  1  0  0  0  0
 20 22  1  0  0  0  0
 20 82  1  0  0  0  0
 20 83  1  0  0  0  0
 21 61  1  0  0  0  0
 22 24  1  0  0  0  0
 22 84  1  0  0  0  0
 22 85  1  0  0  0  0
 23 61  1  0  0  0  0
 23 86  1  0  0  0  0
 24 25  1  0  0  0  0
 24 87  1  0  0  0  0
 24 88  1  0  0  0  0
 25 26  1  0  0  0  0
 25 89  1  0  0  0  0
 25 90  1  0  0  0  0
 26 27  1  0  0  0  0
 26 91  1  0  0  0  0
 26 92  1  0  0  0  0
 27 28  1  0  0  0  0
 27 93  1  0  0  0  0
 27 94  1  0  0  0  0
 28 29  1  0  0  0  0
 28 95  1  0  0  0  0
 28 96  1  0  0  0  0
 29 30  1  0  0  0  0
 29 97  1  0  0  0  0
 29 98  1  0  0  0  0
 30 99  1  0  0  0  0
 30100  1  0  0  0  0
 30101  1  0  0  0  0
 31 32  1  0  0  0  0
 32 33  1  0  0  0  0
 32102  1  0  0  0  0
 32103  1  0  0  0  0
 33 34  1  0  0  0  0
 33104  1  0  0  0  0
 33105  1  0  0  0  0
 34 35  1  0  0  0  0
 34106  1  0  0  0  0
 34107  1  0  0  0  0
 35 36  1  0  0  0  0
 35108  1  0  0  0  0
 35109  1  0  0  0  0
 36 37  1  0  0  0  0
 36110  1  0  0  0  0
 36111  1  0  0  0  0
 37 38  1  0  0  0  0
 37112  1  0  0  0  0
 37113  1  0  0  0  0
 38 39  1  0  0  0  0
 38114  1  0  0  0  0
 38115  1  0  0  0  0
 39 40  1  0  0  0  0
 39116  1  0  0  0  0
 39117  1  0  0  0  0
 40 41  1  0  0  0  0
 40118  1  0  0  0  0
 40119  1  0  0  0  0
 41 42  1  0  0  0  0
 41120  1  0  0  0  0
 41121  1  0  0  0  0
 42 43  1  0  0  0  0
 42122  1  0  0  0  0
 42123  1  0  0  0  0
 43 44  1  0  0  0  0
 43124  1  0  0  0  0
 43125  1  0  0  0  0
 44 45  1  0  0  0  0
 44126  1  0  0  0  0
 44127  1  0  0  0  0
 45 46  2  0  0  0  0
 45128  1  0  0  0  0
 46 47  1  0  0  0  0
 46129  1  0  0  0  0
 47 48  1  0  0  0  0
 47130  1  0  0  0  0
 47131  1  0  0  0  0
 48 49  1  0  0  0  0
 48132  1  0  0  0  0
 48133  1  0  0  0  0
 49 50  1  0  0  0  0
 49134  1  0  0  0  0
 49135  1  0  0  0  0
 50 51  1  0  0  0  0
 50136  1  0  0  0  0
 50137  1  0  0  0  0
 51 52  1  0  0  0  0
 51138  1  0  0  0  0
 51139  1  0  0  0  0
 52 53  1  0  0  0  0
 52140  1  0  0  0  0
 52141  1  0  0  0  0
 53 54  1  0  0  0  0
 53142  1  0  0  0  0
 53143  1  0  0  0  0
 54144  1  0  0  0  0
 54145  1  0  0  0  0
 54146  1  0  0  0  0
 55 56  1  0  0  0  0
 55147  1  1  0  0  0
 56 57  1  0  0  0  0
 56148  1  6  0  0  0
 57 58  1  0  0  0  0
 57149  1  1  0  0  0
 58 59  1  0  0  0  0
 58150  1  1  0  0  0
 59 60  1  0  0  0  0
 59151  1  1  0  0  0
 60152  1  0  0  0  0
 60153  1  0  0  0  0
M  CHG  1  21  -1
M  END
$$$$