/media/chris/experiments/cd1a-new-docking/inputs/ligands/7ryn_ligand.pdb
 OpenBabel07032312553D

153153  0  0  1  0  0  0  0  0999 V2000
  -33.0340   65.1330   62.2120 N   0  0  0  0  0  0  0  0  0  0  0  0
  -32.0220   67.3480   62.3220 C   0  0  0  0  0  0  0  0  0  0  0  0
  -31.1969   68.2589   61.5870 O   0  0  0  0  0  0  0  0  0  0  0  0
  -32.1830   66.0840   61.5030 C   0  0  1  0  0  0  0  0  0  0  0  0
  -30.2154   65.0225   62.4176 O   0  0  0  0  0  0  0  0  0  0  0  0
  -30.8310   65.4230   61.1900 C   0  0  2  0  0  0  0  0  0  0  0  0
  -33.8904   64.1653   60.3686 O   0  0  0  0  0  0  0  0  0  0  0  0
  -29.9369   66.3439   60.4177 C   0  0  0  0  0  0  0  0  0  0  0  0
  -32.9308   70.4319   61.2513 O   0  0  0  0  0  0  0  0  0  0  0  0
  -29.8817   66.4205   59.1027 C   0  0  0  0  0  0  0  0  0  0  0  0
  -33.4310   71.8685   63.6467 O   0  0  0  0  0  0  0  0  0  0  0  0
  -28.9891   67.3610   58.3614 C   0  0  0  0  0  0  0  0  0  0  0  0
  -32.0199   70.3807   65.4572 O   0  0  0  0  0  0  0  0  0  0  0  0
  -27.5176   67.0910   58.6821 C   0  0  0  0  0  0  0  0  0  0  0  0
  -30.2839   69.2401   63.4665 O   0  0  0  0  0  0  0  0  0  0  0  0
  -27.0439   65.6962   58.3070 C   0  0  0  0  0  0  0  0  0  0  0  0
  -29.8754   69.1472   66.2254 O   0  0  0  0  0  0  0  0  0  0  0  0
  -27.1564   65.3754   56.8264 C   0  0  0  0  0  0  0  0  0  0  0  0
  -34.9849   73.3767   64.7040 O   0  0  0  0  0  0  0  0  0  0  0  0
  -26.6963   63.9718   56.4607 C   0  0  0  0  0  0  0  0  0  0  0  0
  -32.7374   74.1926   63.9306 O   0  5  0  0  0  0  0  0  0  0  0  0
  -27.4926   62.8706   57.1438 C   0  0  0  0  0  0  0  0  0  0  0  0
  -32.9709   72.7578   65.8076 O   0  0  0  0  0  0  0  0  0  0  0  0
  -27.0240   61.4693   56.7933 C   0  0  0  0  0  0  0  0  0  0  0  0
  -27.8249   60.3653   57.4582 C   0  0  0  0  0  0  0  0  0  0  0  0
  -27.8080   60.4214   58.9761 C   0  0  0  0  0  0  0  0  0  0  0  0
  -26.4101   60.3234   59.5581 C   0  0  0  0  0  0  0  0  0  0  0  0
  -25.6671   59.0528   59.1923 C   0  0  0  0  0  0  0  0  0  0  0  0
  -24.2832   58.9894   59.8083 C   0  0  0  0  0  0  0  0  0  0  0  0
  -23.4046   60.1472   59.3819 C   0  0  0  0  0  0  0  0  0  0  0  0
  -33.8200   64.2493   61.5913 C   0  0  0  0  0  0  0  0  0  0  0  0
  -34.6214   63.3431   62.4924 C   0  0  0  0  0  0  0  0  0  0  0  0
  -33.8835   62.0543   62.8317 C   0  0  0  0  0  0  0  0  0  0  0  0
  -33.5284   61.2396   61.5983 C   0  0  0  0  0  0  0  0  0  0  0  0
  -32.8057   59.9388   61.9061 C   0  0  0  0  0  0  0  0  0  0  0  0
  -32.4360   59.1328   60.6699 C   0  0  0  0  0  0  0  0  0  0  0  0
  -31.5007   59.8604   59.7126 C   0  0  0  0  0  0  0  0  0  0  0  0
  -31.1458   59.0577   58.4676 C   0  0  0  0  0  0  0  0  0  0  0  0
  -30.1955   59.7667   57.5060 C   0  0  0  0  0  0  0  0  0  0  0  0
  -29.8607   58.9585   56.2534 C   0  0  0  0  0  0  0  0  0  0  0  0
  -28.8964   59.6486   55.2888 C   0  0  0  0  0  0  0  0  0  0  0  0
  -29.4115   60.9910   54.7693 C   0  0  0  0  0  0  0  0  0  0  0  0
  -28.4822   61.7049   53.7878 C   0  0  0  0  0  0  0  0  0  0  0  0
  -28.9933   63.0568   53.2826 C   0  0  0  0  0  0  0  0  0  0  0  0
  -29.1976   64.0529   54.3872 C   0  0  0  0  0  0  0  0  0  0  0  0
  -30.3378   64.6401   54.7049 C   0  0  0  0  0  0  0  0  0  0  0  0
  -31.6578   64.4274   54.0278 C   0  0  0  0  0  0  0  0  0  0  0  0
  -32.2477   65.7007   53.4176 C   0  0  0  0  0  0  0  0  0  0  0  0
  -33.5967   65.4779   52.7469 C   0  0  0  0  0  0  0  0  0  0  0  0
  -34.6706   64.9698   53.7023 C   0  0  0  0  0  0  0  0  0  0  0  0
  -36.0273   64.7221   53.0528 C   0  0  0  0  0  0  0  0  0  0  0  0
  -37.0916   64.2316   54.0243 C   0  0  0  0  0  0  0  0  0  0  0  0
  -36.7417   62.9281   54.7244 C   0  0  0  0  0  0  0  0  0  0  0  0
  -37.8273   62.4579   55.6712 C   0  0  0  0  0  0  0  0  0  0  0  0
  -30.9530   69.4703   62.2406 C   0  0  2  0  0  0  0  0  0  0  0  0
  -32.2933   70.1495   62.4906 C   0  0  1  0  0  0  0  0  0  0  0  0
  -32.0829   71.4352   63.2803 C   0  0  2  0  0  0  0  0  0  0  0  0
  -31.2728   71.1754   64.5419 C   0  0  2  0  0  0  0  0  0  0  0  0
  -29.9796   70.4491   64.1802 C   0  0  1  0  0  0  0  0  0  0  0  0
  -29.1637   70.0508   65.3877 C   0  0  0  0  0  0  0  0  0  0  0  0
  -33.5968   73.2117   64.4786 S   0  0  0  0  0  0  0  0  0  0  0  0
  -33.0282   65.1436   63.1964 H   0  0  0  0  0  0  0  0  0  0  0  0
  -32.9806   67.7896   62.4978 H   0  0  0  0  0  0  0  0  0  0  0  0
  -31.5704   67.1208   63.2650 H   0  0  0  0  0  0  0  0  0  0  0  0
  -32.6374   66.3625   60.5752 H   0  0  0  0  0  0  0  0  0  0  0  0
  -30.8116   64.4280   62.8994 H   0  0  0  0  0  0  0  0  0  0  0  0
  -30.9971   64.5628   60.5757 H   0  0  0  0  0  0  0  0  0  0  0  0
  -29.3156   66.9669   60.9570 H   0  0  0  0  0  0  0  0  0  0  0  0
  -33.0591   69.6065   60.7582 H   0  0  0  0  0  0  0  0  0  0  0  0
  -30.4908   65.7941   58.5535 H   0  0  0  0  0  0  0  0  0  0  0  0
  -29.2295   68.3652   58.6418 H   0  0  0  0  0  0  0  0  0  0  0  0
  -29.1404   67.2174   57.3119 H   0  0  0  0  0  0  0  0  0  0  0  0
  -32.8421   70.8405   65.6883 H   0  0  0  0  0  0  0  0  0  0  0  0
  -27.3739   67.2226   59.7342 H   0  0  0  0  0  0  0  0  0  0  0  0
  -26.9441   67.7785   58.0962 H   0  0  0  0  0  0  0  0  0  0  0  0
  -27.6315   64.9854   58.8495 H   0  0  0  0  0  0  0  0  0  0  0  0
  -26.0035   65.6493   58.5527 H   0  0  0  0  0  0  0  0  0  0  0  0
  -29.3250   68.9123   66.9889 H   0  0  0  0  0  0  0  0  0  0  0  0
  -26.5587   66.0776   56.2836 H   0  0  0  0  0  0  0  0  0  0  0  0
  -28.1945   65.4366   56.5743 H   0  0  0  0  0  0  0  0  0  0  0  0
  -35.4139   73.6640   63.8828 H   0  0  0  0  0  0  0  0  0  0  0  0
  -25.6687   63.8692   56.7408 H   0  0  0  0  0  0  0  0  0  0  0  0
  -26.8452   63.8581   55.4072 H   0  0  0  0  0  0  0  0  0  0  0  0
  -28.5181   62.9660   56.8538 H   0  0  0  0  0  0  0  0  0  0  0  0
  -27.3525   62.9920   58.1976 H   0  0  0  0  0  0  0  0  0  0  0  0
  -33.5340   72.0818   66.2160 H   0  0  0  0  0  0  0  0  0  0  0  0
  -26.0019   61.3713   57.0944 H   0  0  0  0  0  0  0  0  0  0  0  0
  -27.1560   61.3541   55.7377 H   0  0  0  0  0  0  0  0  0  0  0  0
  -27.4199   59.4236   57.1513 H   0  0  0  0  0  0  0  0  0  0  0  0
  -28.8427   60.4934   57.1539 H   0  0  0  0  0  0  0  0  0  0  0  0
  -28.3923   59.6084   59.3538 H   0  0  0  0  0  0  0  0  0  0  0  0
  -28.2092   61.3702   59.2656 H   0  0  0  0  0  0  0  0  0  0  0  0
  -26.4874   60.3708   60.6243 H   0  0  0  0  0  0  0  0  0  0  0  0
  -25.8493   61.1352   59.1442 H   0  0  0  0  0  0  0  0  0  0  0  0
  -25.5709   59.0064   58.1277 H   0  0  0  0  0  0  0  0  0  0  0  0
  -26.2301   58.2267   59.5738 H   0  0  0  0  0  0  0  0  0  0  0  0
  -23.8156   58.0750   59.5080 H   0  0  0  0  0  0  0  0  0  0  0  0
  -24.3977   59.0424   60.8708 H   0  0  0  0  0  0  0  0  0  0  0  0
  -23.2710   60.1215   58.3206 H   0  0  0  0  0  0  0  0  0  0  0  0
  -22.4522   60.0683   59.8633 H   0  0  0  0  0  0  0  0  0  0  0  0
  -23.8698   61.0695   59.6606 H   0  0  0  0  0  0  0  0  0  0  0  0
  -35.5383   63.0939   62.0003 H   0  0  0  0  0  0  0  0  0  0  0  0
  -34.7957   63.8680   63.4084 H   0  0  0  0  0  0  0  0  0  0  0  0
  -34.5067   61.4600   63.4668 H   0  0  0  0  0  0  0  0  0  0  0  0
  -32.9680   62.3238   63.3157 H   0  0  0  0  0  0  0  0  0  0  0  0
  -32.8978   61.8350   60.9714 H   0  0  0  0  0  0  0  0  0  0  0  0
  -34.4506   60.9776   61.1232 H   0  0  0  0  0  0  0  0  0  0  0  0
  -33.4412   59.3379   62.5227 H   0  0  0  0  0  0  0  0  0  0  0  0
  -31.8893   60.1996   62.3930 H   0  0  0  0  0  0  0  0  0  0  0  0
  -33.3360   58.8925   60.1434 H   0  0  0  0  0  0  0  0  0  0  0  0
  -31.9140   58.2636   61.0118 H   0  0  0  0  0  0  0  0  0  0  0  0
  -30.5955   60.0897   60.2350 H   0  0  0  0  0  0  0  0  0  0  0  0
  -32.0166   60.7371   59.3805 H   0  0  0  0  0  0  0  0  0  0  0  0
  -32.0516   58.8391   57.9415 H   0  0  0  0  0  0  0  0  0  0  0  0
  -30.6363   58.1800   58.8067 H   0  0  0  0  0  0  0  0  0  0  0  0
  -29.2837   59.9741   58.0262 H   0  0  0  0  0  0  0  0  0  0  0  0
  -30.6938   60.6546   57.1772 H   0  0  0  0  0  0  0  0  0  0  0  0
  -30.7727   58.7619   55.7296 H   0  0  0  0  0  0  0  0  0  0  0  0
  -29.3688   58.0695   56.5890 H   0  0  0  0  0  0  0  0  0  0  0  0
  -28.7332   59.0016   54.4523 H   0  0  0  0  0  0  0  0  0  0  0  0
  -27.9952   59.8453   55.8310 H   0  0  0  0  0  0  0  0  0  0  0  0
  -29.5645   61.6353   55.6097 H   0  0  0  0  0  0  0  0  0  0  0  0
  -30.3095   60.7770   54.2282 H   0  0  0  0  0  0  0  0  0  0  0  0
  -28.3391   61.0663   52.9413 H   0  0  0  0  0  0  0  0  0  0  0  0
  -27.5784   61.9072   54.3237 H   0  0  0  0  0  0  0  0  0  0  0  0
  -29.9273   62.9040   52.7834 H   0  0  0  0  0  0  0  0  0  0  0  0
  -28.2506   63.4554   52.6235 H   0  0  0  0  0  0  0  0  0  0  0  0
  -28.3700   64.3023   54.9511 H   0  0  0  0  0  0  0  0  0  0  0  0
  -30.3175   65.3070   55.4922 H   0  0  0  0  0  0  0  0  0  0  0  0
  -32.3501   64.0464   54.7493 H   0  0  0  0  0  0  0  0  0  0  0  0
  -31.4898   63.7432   53.2225 H   0  0  0  0  0  0  0  0  0  0  0  0
  -31.5626   66.0758   52.6863 H   0  0  0  0  0  0  0  0  0  0  0  0
  -32.4022   66.3937   54.2180 H   0  0  0  0  0  0  0  0  0  0  0  0
  -33.4717   64.7595   51.9639 H   0  0  0  0  0  0  0  0  0  0  0  0
  -33.9260   66.4262   52.3765 H   0  0  0  0  0  0  0  0  0  0  0  0
  -34.7988   65.6958   54.4778 H   0  0  0  0  0  0  0  0  0  0  0  0
  -34.3304   64.0235   54.0677 H   0  0  0  0  0  0  0  0  0  0  0  0
  -35.9051   63.9859   52.2859 H   0  0  0  0  0  0  0  0  0  0  0  0
  -36.3653   65.6614   52.6675 H   0  0  0  0  0  0  0  0  0  0  0  0
  -38.0016   64.0868   53.4804 H   0  0  0  0  0  0  0  0  0  0  0  0
  -37.1792   64.9769   54.7870 H   0  0  0  0  0  0  0  0  0  0  0  0
  -35.8403   63.0716   55.2828 H   0  0  0  0  0  0  0  0  0  0  0  0
  -36.6272   62.1786   53.9694 H   0  0  0  0  0  0  0  0  0  0  0  0
  -37.9686   63.1865   56.4419 H   0  0  0  0  0  0  0  0  0  0  0  0
  -37.5385   61.5257   56.1102 H   0  0  0  0  0  0  0  0  0  0  0  0
  -38.7414   62.3293   55.1300 H   0  0  0  0  0  0  0  0  0  0  0  0
  -30.3291   70.0960   61.6371 H   0  0  0  0  0  0  0  0  0  0  0  0
  -32.9193   69.4938   63.0591 H   0  0  0  0  0  0  0  0  0  0  0  0
  -31.5471   72.1651   62.7102 H   0  0  0  0  0  0  0  0  0  0  0  0
  -31.0444   72.1140   65.0021 H   0  0  0  0  0  0  0  0  0  0  0  0
  -29.4118   71.1378   63.5901 H   0  0  0  0  0  0  0  0  0  0  0  0
  -28.2611   69.5805   65.0573 H   0  0  0  0  0  0  0  0  0  0  0  0
  -28.9495   70.9336   65.9532 H   0  0  0  0  0  0  0  0  0  0  0  0
  1  4  1  0  0  0  0
  1 31  1  0  0  0  0
  1 62  1  0  0  0  0
  2  3  1  0  0  0  0
  2  4  1  0  0  0  0
  2 63  1  0  0  0  0
  2 64  1  0  0  0  0
  3 55  1  0  0  0  0
  4  6  1  0  0  0  0
  4 65  1  6  0  0  0
  5  6  1  0  0  0  0
  5 66  1  0  0  0  0
  6  8  1  0  0  0  0
  6 67  1  6  0  0  0
  7 31  2  0  0  0  0
  8 10  2  0  0  0  0
  8 68  1  0  0  0  0
  9 56  1  0  0  0  0
  9 69  1  0  0  0  0
 10 12  1  0  0  0  0
 10 70  1  0  0  0  0
 11 57  1  0  0  0  0
 11 61  1  0  0  0  0
 12 14  1  0  0  0  0
 12 71  1  0  0  0  0
 12 72  1  0  0  0  0
 13 58  1  0  0  0  0
 13 73  1  0  0  0  0
 14 16  1  0  0  0  0
 14 74  1  0  0  0  0
 14 75  1  0  0  0  0
 15 55  1  0  0  0  0
 15 59  1  0  0  0  0
 16 18  1  0  0  0  0
 16 76  1  0  0  0  0
 16 77  1  0  0  0  0
 17 60  1  0  0  0  0
 17 78  1  0  0  0  0
 18 20  1  0  0  0  0
 18 79  1  0  0  0  0
 18 80  1  0  0  0  0
 19 61  1  0  0  0  0
 19 81  1  0  0  0  0
 20 22  1  0  0  0  0
 20 82  1  0  0  0  0
 20 83  1  0  0  0  0
 21 61  1  0  0  0  0
 22 24  1  0  0  0  0
 22 84  1  0  0  0  0
 22 85  1  0  0  0  0
 23 61  1  0  0  0  0
 23 86  1  0  0  0  0
 24 25  1  0  0  0  0
 24 87  1  0  0  0  0
 24 88  1  0  0  0  0
 25 26  1  0  0  0  0
 25 89  1  0  0  0  0
 25 90  1  0  0  0  0
 26 27  1  0  0  0  0
 26 91  1  0  0  0  0
 26 92  1  0  0  0  0
 27 28  1  0  0  0  0
 27 93  1  0  0  0  0
 27 94  1  0  0  0  0
 28 29  1  0  0  0  0
 28 95  1  0  0  0  0
 28 96  1  0  0  0  0
 29 30  1  0  0  0  0
 29 97  1  0  0  0  0
 29 98  1  0  0  0  0
 30 99  1  0  0  0  0
 30100  1  0  0  0  0
 30101  1  0  0  0  0
 31 32  1  0  0  0  0
 32 33  1  0  0  0  0
 32102  1  0  0  0  0
 32103  1  0  0  0  0
 33 34  1  0  0  0  0
 33104  1  0  0  0  0
 33105  1  0  0  0  0
 34 35  1  0  0  0  0
 34106  1  0  0  0  0
 34107  1  0  0  0  0
 35 36  1  0  0  0  0
 35108  1  0  0  0  0
 35109  1  0  0  0  0
 36 37  1  0  0  0  0
 36110  1  0  0  0  0
 36111  1  0  0  0  0
 37 38  1  0  0  0  0
 37112  1  0  0  0  0
 37113  1  0  0  0  0
 38 39  1  0  0  0  0
 38114  1  0  0  0  0
 38115  1  0  0  0  0
 39 40  1  0  0  0  0
 39116  1  0  0  0  0
 39117  1  0  0  0  0
 40 41  1  0  0  0  0
 40118  1  0  0  0  0
 40119  1  0  0  0  0
 41 42  1  0  0  0  0
 41120  1  0  0  0  0
 41121  1  0  0  0  0
 42 43  1  0  0  0  0
 42122  1  0  0  0  0
 42123  1  0  0  0  0
 43 44  1  0  0  0  0
 43124  1  0  0  0  0
 43125  1  0  0  0  0
 44 45  1  0  0  0  0
 44126  1  0  0  0  0
 44127  1  0  0  0  0
 45 46  2  0  0  0  0
 45128  1  0  0  0  0
 46 47  1  0  0  0  0
 46129  1  0  0  0  0
 47 48  1  0  0  0  0
 47130  1  0  0  0  0
 47131  1  0  0  0  0
 48 49  1  0  0  0  0
 48132  1  0  0  0  0
 48133  1  0  0  0  0
 49 50  1  0  0  0  0
 49134  1  0  0  0  0
 49135  1  0  0  0  0
 50 51  1  0  0  0  0
 50136  1  0  0  0  0
 50137  1  0  0  0  0
 51 52  1  0  0  0  0
 51138  1  0  0  0  0
 51139  1  0  0  0  0
 52 53  1  0  0  0  0
 52140  1  0  0  0  0
 52141  1  0  0  0  0
 53 54  1  0  0  0  0
 53142  1  0  0  0  0
 53143  1  0  0  0  0
 54144  1  0  0  0  0
 54145  1  0  0  0  0
 54146  1  0  0  0  0
 55 56  1  0  0  0  0
 55147  1  6  0  0  0
 56 57  1  0  0  0  0
 56148  1  1  0  0  0
 57 58  1  0  0  0  0
 57149  1  6  0  0  0
 58 59  1  0  0  0  0
 58150  1  1  0  0  0
 59 60  1  0  0  0  0
 59151  1  6  0  0  0
 60152  1  0  0  0  0
 60153  1  0  0  0  0
M  CHG  1  21  -1
M  END
$$$$