/media/chris/experiments/cd1a-new-docking/inputs/ligands/7ryn_ligand.pdb
 OpenBabel07032312553D

153153  0  0  1  0  0  0  0  0999 V2000
  -33.0340   65.1330   62.2120 N   0  0  0  0  0  0  0  0  0  0  0  0
  -32.0220   67.3480   62.3220 C   0  0  0  0  0  0  0  0  0  0  0  0
  -31.4051   67.0024   63.5673 O   0  0  0  0  0  0  0  0  0  0  0  0
  -32.1830   66.0840   61.5030 C   0  0  1  0  0  0  0  0  0  0  0  0
  -30.2154   65.0225   62.4176 O   0  0  0  0  0  0  0  0  0  0  0  0
  -30.8310   65.4230   61.1900 C   0  0  2  0  0  0  0  0  0  0  0  0
  -32.4714   65.8137   64.2827 O   0  0  0  0  0  0  0  0  0  0  0  0
  -29.9369   66.3439   60.4177 C   0  0  0  0  0  0  0  0  0  0  0  0
  -29.0472   68.5087   63.4560 O   0  0  0  0  0  0  0  0  0  0  0  0
  -29.5088   67.5166   60.8413 C   0  0  0  0  0  0  0  0  0  0  0  0
  -29.4663   71.3004   63.7442 O   0  0  0  0  0  0  0  0  0  0  0  0
  -28.6047   68.4062   60.0527 C   0  0  0  0  0  0  0  0  0  0  0  0
  -32.1950   71.4092   63.9043 O   0  0  0  0  0  0  0  0  0  0  0  0
  -27.6912   67.5893   59.1365 C   0  0  0  0  0  0  0  0  0  0  0  0
  -32.4523   68.6756   64.7639 O   0  0  0  0  0  0  0  0  0  0  0  0
  -26.7271   68.4260   58.3113 C   0  0  0  0  0  0  0  0  0  0  0  0
  -33.7220   71.3280   66.9172 O   0  0  0  0  0  0  0  0  0  0  0  0
  -25.8308   67.6180   57.3885 C   0  0  0  0  0  0  0  0  0  0  0  0
  -28.4817   73.4554   63.3041 O   0  0  0  0  0  0  0  0  0  0  0  0
  -26.5869   66.8013   56.3507 C   0  0  0  0  0  0  0  0  0  0  0  0
  -28.5846   72.5516   65.6468 O   0  5  0  0  0  0  0  0  0  0  0  0
  -25.6836   65.9820   55.4417 C   0  0  0  0  0  0  0  0  0  0  0  0
  -30.5292   73.2918   64.5035 O   0  0  0  0  0  0  0  0  0  0  0  0
  -26.4353   65.1794   54.3944 C   0  0  0  0  0  0  0  0  0  0  0  0
  -27.4270   64.1863   54.9709 C   0  0  0  0  0  0  0  0  0  0  0  0
  -28.5242   64.8256   55.8047 C   0  0  0  0  0  0  0  0  0  0  0  0
  -29.4944   63.8136   56.3852 C   0  0  0  0  0  0  0  0  0  0  0  0
  -30.6132   64.4204   57.2101 C   0  0  0  0  0  0  0  0  0  0  0  0
  -31.4824   65.3670   56.4058 C   0  0  0  0  0  0  0  0  0  0  0  0
  -32.5888   65.9852   57.2353 C   0  0  0  0  0  0  0  0  0  0  0  0
  -33.1122   65.0716   63.5440 C   0  0  0  0  0  0  0  0  0  0  0  0
  -34.0520   64.0283   64.0950 C   0  0  0  0  0  0  0  0  0  0  0  0
  -35.2217   63.7435   63.1616 C   0  0  0  0  0  0  0  0  0  0  0  0
  -36.0602   64.9795   62.8779 C   0  0  0  0  0  0  0  0  0  0  0  0
  -36.6633   65.6133   64.1204 C   0  0  0  0  0  0  0  0  0  0  0  0
  -37.5757   64.6824   64.9049 C   0  0  0  0  0  0  0  0  0  0  0  0
  -38.7634   64.1606   64.1063 C   0  0  0  0  0  0  0  0  0  0  0  0
  -39.6844   63.2423   64.8993 C   0  0  0  0  0  0  0  0  0  0  0  0
  -39.0072   61.9926   65.4560 C   0  0  0  0  0  0  0  0  0  0  0  0
  -39.9449   61.0715   66.2348 C   0  0  0  0  0  0  0  0  0  0  0  0
  -41.1140   60.5170   65.4211 C   0  0  0  0  0  0  0  0  0  0  0  0
  -42.0444   59.6129   66.2300 C   0  0  0  0  0  0  0  0  0  0  0  0
  -42.7195   60.2836   67.4263 C   0  0  0  0  0  0  0  0  0  0  0  0
  -43.6172   61.4735   67.0768 C   0  0  0  0  0  0  0  0  0  0  0  0
  -42.8784   62.5743   66.3720 C   0  0  0  0  0  0  0  0  0  0  0  0
  -43.1570   63.8643   66.4363 C   0  0  0  0  0  0  0  0  0  0  0  0
  -44.2655   64.4886   67.2285 C   0  0  0  0  0  0  0  0  0  0  0  0
  -44.3419   66.0101   67.0851 C   0  0  0  0  0  0  0  0  0  0  0  0
  -44.5864   66.4685   65.6536 C   0  0  0  0  0  0  0  0  0  0  0  0
  -43.5066   66.0114   64.6793 C   0  0  0  0  0  0  0  0  0  0  0  0
  -43.7181   66.4712   63.2413 C   0  0  0  0  0  0  0  0  0  0  0  0
  -42.6400   65.9917   62.2796 C   0  0  0  0  0  0  0  0  0  0  0  0
  -41.2357   66.4488   62.6410 C   0  0  0  0  0  0  0  0  0  0  0  0
  -40.1883   65.9700   61.6562 C   0  0  0  0  0  0  0  0  0  0  0  0
  -31.2104   68.0828   64.4327 C   0  0  2  0  0  0  0  0  0  0  0  0
  -30.3138   69.0941   63.7304 C   0  0  1  0  0  0  0  0  0  0  0  0
  -30.1449   70.3308   64.6038 C   0  0  2  0  0  0  0  0  0  0  0  0
  -31.4954   70.8877   65.0296 C   0  0  2  0  0  0  0  0  0  0  0  0
  -32.3266   69.7807   65.6732 C   0  0  1  0  0  0  0  0  0  0  0  0
  -33.7288   70.2187   66.0260 C   0  0  0  0  0  0  0  0  0  0  0  0
  -29.1081   72.7269   64.3444 S   0  0  0  0  0  0  0  0  0  0  0  0
  -33.5772   64.5058   61.6821 H   0  0  0  0  0  0  0  0  0  0  0  0
  -31.4053   68.0450   61.7940 H   0  0  0  0  0  0  0  0  0  0  0  0
  -32.9770   67.7979   62.4965 H   0  0  0  0  0  0  0  0  0  0  0  0
  -32.6374   66.3625   60.5752 H   0  0  0  0  0  0  0  0  0  0  0  0
  -30.8116   64.4280   62.8994 H   0  0  0  0  0  0  0  0  0  0  0  0
  -30.9971   64.5628   60.5757 H   0  0  0  0  0  0  0  0  0  0  0  0
  -29.6322   66.0363   59.4809 H   0  0  0  0  0  0  0  0  0  0  0  0
  -29.1677   67.7231   62.8999 H   0  0  0  0  0  0  0  0  0  0  0  0
  -29.8165   67.8388   61.7722 H   0  0  0  0  0  0  0  0  0  0  0  0
  -28.0023   68.9785   60.7269 H   0  0  0  0  0  0  0  0  0  0  0  0
  -29.2061   69.0508   59.4463 H   0  0  0  0  0  0  0  0  0  0  0  0
  -31.6684   72.1129   63.4939 H   0  0  0  0  0  0  0  0  0  0  0  0
  -28.3056   67.0260   58.4657 H   0  0  0  0  0  0  0  0  0  0  0  0
  -27.0940   66.9689   59.7716 H   0  0  0  0  0  0  0  0  0  0  0  0
  -26.1047   68.9799   58.9826 H   0  0  0  0  0  0  0  0  0  0  0  0
  -27.3251   69.0544   57.6849 H   0  0  0  0  0  0  0  0  0  0  0  0
  -34.6350   71.5832   67.1228 H   0  0  0  0  0  0  0  0  0  0  0  0
  -25.2496   66.9473   57.9863 H   0  0  0  0  0  0  0  0  0  0  0  0
  -25.2272   68.3192   56.8510 H   0  0  0  0  0  0  0  0  0  0  0  0
  -27.5791   73.1242   63.1756 H   0  0  0  0  0  0  0  0  0  0  0  0
  -27.1583   67.4720   55.7437 H   0  0  0  0  0  0  0  0  0  0  0  0
  -27.2033   66.1093   56.8855 H   0  0  0  0  0  0  0  0  0  0  0  0
  -25.1212   65.3030   56.0479 H   0  0  0  0  0  0  0  0  0  0  0  0
  -25.0595   66.6741   54.9160 H   0  0  0  0  0  0  0  0  0  0  0  0
  -30.9236   73.4264   63.6276 H   0  0  0  0  0  0  0  0  0  0  0  0
  -25.7213   64.6398   53.8079 H   0  0  0  0  0  0  0  0  0  0  0  0
  -27.0002   65.8796   53.8151 H   0  0  0  0  0  0  0  0  0  0  0  0
  -26.8920   63.4966   55.5898 H   0  0  0  0  0  0  0  0  0  0  0  0
  -27.9056   63.7082   54.1418 H   0  0  0  0  0  0  0  0  0  0  0  0
  -29.0708   65.5054   55.1851 H   0  0  0  0  0  0  0  0  0  0  0  0
  -28.0526   65.3240   56.6257 H   0  0  0  0  0  0  0  0  0  0  0  0
  -28.9436   63.1424   57.0105 H   0  0  0  0  0  0  0  0  0  0  0  0
  -29.9583   63.3238   55.5546 H   0  0  0  0  0  0  0  0  0  0  0  0
  -30.1824   64.9609   58.0269 H   0  0  0  0  0  0  0  0  0  0  0  0
  -31.2354   63.6196   57.5514 H   0  0  0  0  0  0  0  0  0  0  0  0
  -31.9232   64.8238   55.5962 H   0  0  0  0  0  0  0  0  0  0  0  0
  -30.8581   66.1612   56.0532 H   0  0  0  0  0  0  0  0  0  0  0  0
  -33.2323   65.2136   57.6035 H   0  0  0  0  0  0  0  0  0  0  0  0
  -33.1540   66.6616   56.6287 H   0  0  0  0  0  0  0  0  0  0  0  0
  -32.1619   66.5171   58.0597 H   0  0  0  0  0  0  0  0  0  0  0  0
  -34.4370   64.3740   65.0315 H   0  0  0  0  0  0  0  0  0  0  0  0
  -33.4981   63.1198   64.2077 H   0  0  0  0  0  0  0  0  0  0  0  0
  -35.8470   63.0017   63.6129 H   0  0  0  0  0  0  0  0  0  0  0  0
  -34.8173   63.4064   62.2300 H   0  0  0  0  0  0  0  0  0  0  0  0
  -36.8575   64.7020   62.2205 H   0  0  0  0  0  0  0  0  0  0  0  0
  -35.4050   65.7065   62.4454 H   0  0  0  0  0  0  0  0  0  0  0  0
  -37.2318   66.4687   63.8204 H   0  0  0  0  0  0  0  0  0  0  0  0
  -35.8490   65.8679   64.7662 H   0  0  0  0  0  0  0  0  0  0  0  0
  -37.9493   65.2148   65.7545 H   0  0  0  0  0  0  0  0  0  0  0  0
  -36.9881   63.8308   65.1779 H   0  0  0  0  0  0  0  0  0  0  0  0
  -38.3901   63.6173   63.2634 H   0  0  0  0  0  0  0  0  0  0  0  0
  -39.3445   65.0126   63.8211 H   0  0  0  0  0  0  0  0  0  0  0  0
  -40.4813   62.9321   64.2562 H   0  0  0  0  0  0  0  0  0  0  0  0
  -40.0229   63.8063   65.7433 H   0  0  0  0  0  0  0  0  0  0  0  0
  -38.2185   62.3006   66.1102 H   0  0  0  0  0  0  0  0  0  0  0  0
  -38.6514   61.4334   64.6160 H   0  0  0  0  0  0  0  0  0  0  0  0
  -40.3446   61.6228   67.0601 H   0  0  0  0  0  0  0  0  0  0  0  0
  -39.3594   60.2284   66.5369 H   0  0  0  0  0  0  0  0  0  0  0  0
  -40.7194   59.9517   64.6028 H   0  0  0  0  0  0  0  0  0  0  0  0
  -41.6946   61.3538   65.0931 H   0  0  0  0  0  0  0  0  0  0  0  0
  -41.4702   58.7864   66.5936 H   0  0  0  0  0  0  0  0  0  0  0  0
  -42.8321   59.3244   65.5658 H   0  0  0  0  0  0  0  0  0  0  0  0
  -41.9540   60.6283   68.0897 H   0  0  0  0  0  0  0  0  0  0  0  0
  -43.3579   59.5445   67.8636 H   0  0  0  0  0  0  0  0  0  0  0  0
  -44.0323   61.8656   67.9817 H   0  0  0  0  0  0  0  0  0  0  0  0
  -44.3767   61.1189   66.4118 H   0  0  0  0  0  0  0  0  0  0  0  0
  -42.0781   62.2974   65.7822 H   0  0  0  0  0  0  0  0  0  0  0  0
  -42.5556   64.5009   65.8903 H   0  0  0  0  0  0  0  0  0  0  0  0
  -44.1163   64.2536   68.2617 H   0  0  0  0  0  0  0  0  0  0  0  0
  -45.1837   64.0919   66.8484 H   0  0  0  0  0  0  0  0  0  0  0  0
  -43.4176   66.4300   67.4230 H   0  0  0  0  0  0  0  0  0  0  0  0
  -45.1735   66.3423   67.6708 H   0  0  0  0  0  0  0  0  0  0  0  0
  -44.6238   67.5378   65.6414 H   0  0  0  0  0  0  0  0  0  0  0  0
  -45.5077   66.0282   65.3337 H   0  0  0  0  0  0  0  0  0  0  0  0
  -43.4797   64.9417   64.6877 H   0  0  0  0  0  0  0  0  0  0  0  0
  -42.5906   66.4551   65.0095 H   0  0  0  0  0  0  0  0  0  0  0  0
  -43.7313   67.5410   63.2275 H   0  0  0  0  0  0  0  0  0  0  0  0
  -44.6429   66.0466   62.9106 H   0  0  0  0  0  0  0  0  0  0  0  0
  -42.8726   66.3617   61.3030 H   0  0  0  0  0  0  0  0  0  0  0  0
  -42.6378   64.9228   62.3278 H   0  0  0  0  0  0  0  0  0  0  0  0
  -40.9917   66.0684   63.6109 H   0  0  0  0  0  0  0  0  0  0  0  0
  -41.2308   67.5186   62.6203 H   0  0  0  0  0  0  0  0  0  0  0  0
  -40.1661   64.9002   61.6512 H   0  0  0  0  0  0  0  0  0  0  0  0
  -39.2289   66.3453   61.9453 H   0  0  0  0  0  0  0  0  0  0  0  0
  -40.4304   66.3263   60.6767 H   0  0  0  0  0  0  0  0  0  0  0  0
  -30.7515   67.7503   65.3403 H   0  0  0  0  0  0  0  0  0  0  0  0
  -30.7674   69.3839   62.8057 H   0  0  0  0  0  0  0  0  0  0  0  0
  -29.6019   70.1103   65.4990 H   0  0  0  0  0  0  0  0  0  0  0  0
  -31.3342   71.6761   65.7349 H   0  0  0  0  0  0  0  0  0  0  0  0
  -31.8112   69.5117   66.5715 H   0  0  0  0  0  0  0  0  0  0  0  0
  -34.2418   70.4968   65.1292 H   0  0  0  0  0  0  0  0  0  0  0  0
  -34.2225   69.4026   66.5110 H   0  0  0  0  0  0  0  0  0  0  0  0
  1  4  1  0  0  0  0
  1 31  1  0  0  0  0
  1 62  1  0  0  0  0
  2  3  1  0  0  0  0
  2  4  1  0  0  0  0
  2 63  1  0  0  0  0
  2 64  1  0  0  0  0
  3 55  1  0  0  0  0
  4  6  1  0  0  0  0
  4 65  1  6  0  0  0
  5  6  1  0  0  0  0
  5 66  1  0  0  0  0
  6  8  1  0  0  0  0
  6 67  1  6  0  0  0
  7 31  2  0  0  0  0
  8 10  2  0  0  0  0
  8 68  1  0  0  0  0
  9 56  1  0  0  0  0
  9 69  1  0  0  0  0
 10 12  1  0  0  0  0
 10 70  1  0  0  0  0
 11 57  1  0  0  0  0
 11 61  1  0  0  0  0
 12 14  1  0  0  0  0
 12 71  1  0  0  0  0
 12 72  1  0  0  0  0
 13 58  1  0  0  0  0
 13 73  1  0  0  0  0
 14 16  1  0  0  0  0
 14 74  1  0  0  0  0
 14 75  1  0  0  0  0
 15 55  1  0  0  0  0
 15 59  1  0  0  0  0
 16 18  1  0  0  0  0
 16 76  1  0  0  0  0
 16 77  1  0  0  0  0
 17 60  1  0  0  0  0
 17 78  1  0  0  0  0
 18 20  1  0  0  0  0
 18 79  1  0  0  0  0
 18 80  1  0  0  0  0
 19 61  1  0  0  0  0
 19 81  1  0  0  0  0
 20 22  1  0  0  0  0
 20 82  1  0  0  0  0
 20 83  1  0  0  0  0
 21 61  1  0  0  0  0
 22 24  1  0  0  0  0
 22 84  1  0  0  0  0
 22 85  1  0  0  0  0
 23 61  1  0  0  0  0
 23 86  1  0  0  0  0
 24 25  1  0  0  0  0
 24 87  1  0  0  0  0
 24 88  1  0  0  0  0
 25 26  1  0  0  0  0
 25 89  1  0  0  0  0
 25 90  1  0  0  0  0
 26 27  1  0  0  0  0
 26 91  1  0  0  0  0
 26 92  1  0  0  0  0
 27 28  1  0  0  0  0
 27 93  1  0  0  0  0
 27 94  1  0  0  0  0
 28 29  1  0  0  0  0
 28 95  1  0  0  0  0
 28 96  1  0  0  0  0
 29 30  1  0  0  0  0
 29 97  1  0  0  0  0
 29 98  1  0  0  0  0
 30 99  1  0  0  0  0
 30100  1  0  0  0  0
 30101  1  0  0  0  0
 31 32  1  0  0  0  0
 32 33  1  0  0  0  0
 32102  1  0  0  0  0
 32103  1  0  0  0  0
 33 34  1  0  0  0  0
 33104  1  0  0  0  0
 33105  1  0  0  0  0
 34 35  1  0  0  0  0
 34106  1  0  0  0  0
 34107  1  0  0  0  0
 35 36  1  0  0  0  0
 35108  1  0  0  0  0
 35109  1  0  0  0  0
 36 37  1  0  0  0  0
 36110  1  0  0  0  0
 36111  1  0  0  0  0
 37 38  1  0  0  0  0
 37112  1  0  0  0  0
 37113  1  0  0  0  0
 38 39  1  0  0  0  0
 38114  1  0  0  0  0
 38115  1  0  0  0  0
 39 40  1  0  0  0  0
 39116  1  0  0  0  0
 39117  1  0  0  0  0
 40 41  1  0  0  0  0
 40118  1  0  0  0  0
 40119  1  0  0  0  0
 41 42  1  0  0  0  0
 41120  1  0  0  0  0
 41121  1  0  0  0  0
 42 43  1  0  0  0  0
 42122  1  0  0  0  0
 42123  1  0  0  0  0
 43 44  1  0  0  0  0
 43124  1  0  0  0  0
 43125  1  0  0  0  0
 44 45  1  0  0  0  0
 44126  1  0  0  0  0
 44127  1  0  0  0  0
 45 46  2  0  0  0  0
 45128  1  0  0  0  0
 46 47  1  0  0  0  0
 46129  1  0  0  0  0
 47 48  1  0  0  0  0
 47130  1  0  0  0  0
 47131  1  0  0  0  0
 48 49  1  0  0  0  0
 48132  1  0  0  0  0
 48133  1  0  0  0  0
 49 50  1  0  0  0  0
 49134  1  0  0  0  0
 49135  1  0  0  0  0
 50 51  1  0  0  0  0
 50136  1  0  0  0  0
 50137  1  0  0  0  0
 51 52  1  0  0  0  0
 51138  1  0  0  0  0
 51139  1  0  0  0  0
 52 53  1  0  0  0  0
 52140  1  0  0  0  0
 52141  1  0  0  0  0
 53 54  1  0  0  0  0
 53142  1  0  0  0  0
 53143  1  0  0  0  0
 54144  1  0  0  0  0
 54145  1  0  0  0  0
 54146  1  0  0  0  0
 55 56  1  0  0  0  0
 55147  1  1  0  0  0
 56 57  1  0  0  0  0
 56148  1  6  0  0  0
 57 58  1  0  0  0  0
 57149  1  1  0  0  0
 58 59  1  0  0  0  0
 58150  1  1  0  0  0
 59 60  1  0  0  0  0
 59151  1  1  0  0  0
 60152  1  0  0  0  0
 60153  1  0  0  0  0
M  CHG  1  21  -1
M  END
$$$$