/media/chris/experiments/cd1a-new-docking/inputs/ligands/7ryn_ligand.pdb
 OpenBabel07032312553D

153153  0  0  1  0  0  0  0  0999 V2000
  -33.0340   65.1330   62.2120 N   0  0  0  0  0  0  0  0  0  0  0  0
  -32.0220   67.3480   62.3220 C   0  0  0  0  0  0  0  0  0  0  0  0
  -31.4051   67.0024   63.5673 O   0  0  0  0  0  0  0  0  0  0  0  0
  -32.1830   66.0840   61.5030 C   0  0  1  0  0  0  0  0  0  0  0  0
  -29.9992   66.3678   60.5104 O   0  0  0  0  0  0  0  0  0  0  0  0
  -30.8310   65.4230   61.1900 C   0  0  2  0  0  0  0  0  0  0  0  0
  -31.7322   64.9724   64.0416 O   0  0  0  0  0  0  0  0  0  0  0  0
  -31.0055   64.1786   60.3744 C   0  0  0  0  0  0  0  0  0  0  0  0
  -31.4046   66.6220   66.3415 O   0  0  0  0  0  0  0  0  0  0  0  0
  -32.1624   63.6954   59.9670 C   0  0  0  0  0  0  0  0  0  0  0  0
  -29.4155   68.1261   67.6954 O   0  0  0  0  0  0  0  0  0  0  0  0
  -32.3025   62.4588   59.1413 C   0  0  0  0  0  0  0  0  0  0  0  0
  -28.1411   69.3260   65.5933 O   0  0  0  0  0  0  0  0  0  0  0  0
  -33.6243   61.7469   59.4364 C   0  0  0  0  0  0  0  0  0  0  0  0
  -30.3909   69.0606   63.8198 O   0  0  0  0  0  0  0  0  0  0  0  0
  -33.8327   60.4663   58.6443 C   0  0  0  0  0  0  0  0  0  0  0  0
  -29.1056   72.3918   64.5510 O   0  0  0  0  0  0  0  0  0  0  0  0
  -35.1521   59.7669   58.9233 C   0  0  0  0  0  0  0  0  0  0  0  0
  -29.0352   66.5764   69.5011 O   0  0  0  0  0  0  0  0  0  0  0  0
  -35.3465   58.4770   58.1396 C   0  0  0  0  0  0  0  0  0  0  0  0
  -30.6879   66.0419   67.6849 O   0  5  0  0  0  0  0  0  0  0  0  0
  -35.3038   58.6665   56.6312 C   0  0  0  0  0  0  0  0  0  0  0  0
  -31.1144   67.7162   69.3133 O   0  0  0  0  0  0  0  0  0  0  0  0
  -36.3595   59.6225   56.1045 C   0  0  0  0  0  0  0  0  0  0  0  0
  -36.3336   59.8032   54.5981 C   0  0  0  0  0  0  0  0  0  0  0  0
  -36.5747   58.5209   53.8202 C   0  0  0  0  0  0  0  0  0  0  0  0
  -37.9273   57.8969   54.1091 C   0  0  0  0  0  0  0  0  0  0  0  0
  -39.1111   58.7783   53.7596 C   0  0  0  0  0  0  0  0  0  0  0  0
  -39.1591   59.1319   52.2861 C   0  0  0  0  0  0  0  0  0  0  0  0
  -40.3322   60.0261   51.9418 C   0  0  0  0  0  0  0  0  0  0  0  0
  -32.7434   64.6519   63.4237 C   0  0  0  0  0  0  0  0  0  0  0  0
  -33.7473   63.6846   63.9996 C   0  0  0  0  0  0  0  0  0  0  0  0
  -35.1647   63.9518   63.5095 C   0  0  0  0  0  0  0  0  0  0  0  0
  -36.1814   62.9890   64.1016 C   0  0  0  0  0  0  0  0  0  0  0  0
  -37.6033   63.2201   63.6178 C   0  0  0  0  0  0  0  0  0  0  0  0
  -38.1404   64.6094   63.9275 C   0  0  0  0  0  0  0  0  0  0  0  0
  -37.3421   65.7391   63.2894 C   0  0  0  0  0  0  0  0  0  0  0  0
  -37.8720   67.1295   63.6151 C   0  0  0  0  0  0  0  0  0  0  0  0
  -37.0926   68.2721   62.9690 C   0  0  0  0  0  0  0  0  0  0  0  0
  -37.6234   69.6620   63.3168 C   0  0  0  0  0  0  0  0  0  0  0  0
  -37.5932   70.0010   64.8069 C   0  0  0  0  0  0  0  0  0  0  0  0
  -38.1456   71.3902   65.1266 C   0  0  0  0  0  0  0  0  0  0  0  0
  -37.4160   72.5490   64.4473 C   0  0  0  0  0  0  0  0  0  0  0  0
  -37.4373   72.5160   62.9168 C   0  0  0  0  0  0  0  0  0  0  0  0
  -38.8269   72.5738   62.3514 C   0  0  0  0  0  0  0  0  0  0  0  0
  -39.2291   72.0287   61.2170 C   0  0  0  0  0  0  0  0  0  0  0  0
  -38.3790   71.2400   60.2675 C   0  0  0  0  0  0  0  0  0  0  0  0
  -37.2325   70.4889   60.9479 C   0  0  0  0  0  0  0  0  0  0  0  0
  -36.3644   69.7043   59.9732 C   0  0  0  0  0  0  0  0  0  0  0  0
  -35.6883   70.5808   58.9248 C   0  0  0  0  0  0  0  0  0  0  0  0
  -34.8261   69.8182   57.9253 C   0  0  0  0  0  0  0  0  0  0  0  0
  -33.6942   69.0295   58.5687 C   0  0  0  0  0  0  0  0  0  0  0  0
  -32.8179   68.2787   57.5787 C   0  0  0  0  0  0  0  0  0  0  0  0
  -32.1296   69.1953   56.5877 C   0  0  0  0  0  0  0  0  0  0  0  0
  -31.2104   68.0828   64.4327 C   0  0  2  0  0  0  0  0  0  0  0  0
  -30.5480   67.5584   65.7001 C   0  0  1  0  0  0  0  0  0  0  0  0
  -30.2364   68.7171   66.6389 C   0  0  2  0  0  0  0  0  0  0  0  0
  -29.4420   69.8007   65.9249 C   0  0  2  0  0  0  0  0  0  0  0  0
  -30.1703   70.2134   64.6482 C   0  0  1  0  0  0  0  0  0  0  0  0
  -29.3950   71.2080   63.8163 C   0  0  0  0  0  0  0  0  0  0  0  0
  -30.0256   66.9384   68.5560 S   0  0  0  0  0  0  0  0  0  0  0  0
  -33.8632   64.8313   61.7754 H   0  0  0  0  0  0  0  0  0  0  0  0
  -31.4053   68.0450   61.7940 H   0  0  0  0  0  0  0  0  0  0  0  0
  -32.9770   67.7979   62.4965 H   0  0  0  0  0  0  0  0  0  0  0  0
  -32.6374   66.3625   60.5752 H   0  0  0  0  0  0  0  0  0  0  0  0
  -29.9008   67.1635   61.0564 H   0  0  0  0  0  0  0  0  0  0  0  0
  -30.3647   65.1308   62.1077 H   0  0  0  0  0  0  0  0  0  0  0  0
  -30.1536   63.6592   60.1109 H   0  0  0  0  0  0  0  0  0  0  0  0
  -31.5955   65.8899   65.7345 H   0  0  0  0  0  0  0  0  0  0  0  0
  -33.0214   64.2010   60.2344 H   0  0  0  0  0  0  0  0  0  0  0  0
  -31.4917   61.7967   59.3630 H   0  0  0  0  0  0  0  0  0  0  0  0
  -32.2891   62.7365   58.1080 H   0  0  0  0  0  0  0  0  0  0  0  0
  -27.6765   69.0633   66.4032 H   0  0  0  0  0  0  0  0  0  0  0  0
  -34.4255   62.4179   59.2064 H   0  0  0  0  0  0  0  0  0  0  0  0
  -33.6000   61.4690   60.4693 H   0  0  0  0  0  0  0  0  0  0  0  0
  -33.0381   59.7910   58.8837 H   0  0  0  0  0  0  0  0  0  0  0  0
  -33.8453   60.7436   57.6109 H   0  0  0  0  0  0  0  0  0  0  0  0
  -28.6087   73.0074   63.9896 H   0  0  0  0  0  0  0  0  0  0  0  0
  -35.9478   60.4366   58.6719 H   0  0  0  0  0  0  0  0  0  0  0  0
  -35.1488   59.5019   59.9600 H   0  0  0  0  0  0  0  0  0  0  0  0
  -28.3292   66.0818   69.0563 H   0  0  0  0  0  0  0  0  0  0  0  0
  -36.2976   58.0627   58.4014 H   0  0  0  0  0  0  0  0  0  0  0  0
  -34.5346   57.8292   58.3968 H   0  0  0  0  0  0  0  0  0  0  0  0
  -35.4497   57.7135   56.1670 H   0  0  0  0  0  0  0  0  0  0  0  0
  -34.3511   59.0938   56.3971 H   0  0  0  0  0  0  0  0  0  0  0  0
  -30.6977   68.3443   69.9238 H   0  0  0  0  0  0  0  0  0  0  0  0
  -36.2054   60.5781   56.5605 H   0  0  0  0  0  0  0  0  0  0  0  0
  -37.3107   59.1975   56.3485 H   0  0  0  0  0  0  0  0  0  0  0  0
  -35.3749   60.1898   54.3217 H   0  0  0  0  0  0  0  0  0  0  0  0
  -37.1325   60.4710   54.3516 H   0  0  0  0  0  0  0  0  0  0  0  0
  -35.8120   57.8166   54.0793 H   0  0  0  0  0  0  0  0  0  0  0  0
  -36.5527   58.7692   52.7796 H   0  0  0  0  0  0  0  0  0  0  0  0
  -37.9753   57.6708   55.1539 H   0  0  0  0  0  0  0  0  0  0  0  0
  -38.0009   57.0270   53.4904 H   0  0  0  0  0  0  0  0  0  0  0  0
  -39.0444   59.6828   54.3273 H   0  0  0  0  0  0  0  0  0  0  0  0
  -40.0016   58.2321   53.9912 H   0  0  0  0  0  0  0  0  0  0  0  0
  -39.2384   58.2282   51.7188 H   0  0  0  0  0  0  0  0  0  0  0  0
  -38.2627   59.6668   52.0509 H   0  0  0  0  0  0  0  0  0  0  0  0
  -41.2464   59.5175   52.1666 H   0  0  0  0  0  0  0  0  0  0  0  0
  -40.3043   60.2655   50.8993 H   0  0  0  0  0  0  0  0  0  0  0  0
  -40.2747   60.9270   52.5163 H   0  0  0  0  0  0  0  0  0  0  0  0
  -33.7318   63.7687   65.0661 H   0  0  0  0  0  0  0  0  0  0  0  0
  -33.4726   62.7018   63.6777 H   0  0  0  0  0  0  0  0  0  0  0  0
  -35.1823   63.8557   62.4439 H   0  0  0  0  0  0  0  0  0  0  0  0
  -35.4341   64.9390   63.8221 H   0  0  0  0  0  0  0  0  0  0  0  0
  -36.1662   63.0959   65.1661 H   0  0  0  0  0  0  0  0  0  0  0  0
  -35.9009   62.0068   63.7831 H   0  0  0  0  0  0  0  0  0  0  0  0
  -38.2404   62.5000   64.0874 H   0  0  0  0  0  0  0  0  0  0  0  0
  -37.5892   63.1225   62.5524 H   0  0  0  0  0  0  0  0  0  0  0  0
  -38.1277   64.7462   64.9887 H   0  0  0  0  0  0  0  0  0  0  0  0
  -39.1276   64.6581   63.5176 H   0  0  0  0  0  0  0  0  0  0  0  0
  -37.3651   65.6098   62.2275 H   0  0  0  0  0  0  0  0  0  0  0  0
  -36.3509   65.6830   63.6885 H   0  0  0  0  0  0  0  0  0  0  0  0
  -37.8377   67.2600   64.6765 H   0  0  0  0  0  0  0  0  0  0  0  0
  -38.8650   67.1768   63.2192 H   0  0  0  0  0  0  0  0  0  0  0  0
  -37.1371   68.1512   61.9067 H   0  0  0  0  0  0  0  0  0  0  0  0
  -36.0937   68.2186   63.3486 H   0  0  0  0  0  0  0  0  0  0  0  0
  -38.6372   69.7256   62.9806 H   0  0  0  0  0  0  0  0  0  0  0  0
  -36.9757   70.3632   62.8334 H   0  0  0  0  0  0  0  0  0  0  0  0
  -36.5790   69.9537   65.1447 H   0  0  0  0  0  0  0  0  0  0  0  0
  -38.2197   69.2905   65.3045 H   0  0  0  0  0  0  0  0  0  0  0  0
  -38.0858   71.5354   66.1850 H   0  0  0  0  0  0  0  0  0  0  0  0
  -39.1473   71.4068   64.7508 H   0  0  0  0  0  0  0  0  0  0  0  0
  -36.3947   72.5310   64.7659 H   0  0  0  0  0  0  0  0  0  0  0  0
  -37.9342   73.4397   64.7353 H   0  0  0  0  0  0  0  0  0  0  0  0
  -36.9722   71.6101   62.5881 H   0  0  0  0  0  0  0  0  0  0  0  0
  -36.9125   73.3813   62.5692 H   0  0  0  0  0  0  0  0  0  0  0  0
  -39.5341   73.0875   62.9001 H   0  0  0  0  0  0  0  0  0  0  0  0
  -40.2205   72.1579   60.9610 H   0  0  0  0  0  0  0  0  0  0  0  0
  -37.9620   71.9134   59.5482 H   0  0  0  0  0  0  0  0  0  0  0  0
  -39.0123   70.5038   59.8181 H   0  0  0  0  0  0  0  0  0  0  0  0
  -37.6485   69.8053   61.6582 H   0  0  0  0  0  0  0  0  0  0  0  0
  -36.6055   71.2209   61.4124 H   0  0  0  0  0  0  0  0  0  0  0  0
  -36.9806   68.9883   59.4706 H   0  0  0  0  0  0  0  0  0  0  0  0
  -35.5884   69.2394   60.5446 H   0  0  0  0  0  0  0  0  0  0  0  0
  -35.0661   71.2885   59.4315 H   0  0  0  0  0  0  0  0  0  0  0  0
  -36.4725   71.0418   58.3614 H   0  0  0  0  0  0  0  0  0  0  0  0
  -34.4007   70.5217   57.2406 H   0  0  0  0  0  0  0  0  0  0  0  0
  -35.4639   69.1094   57.4397 H   0  0  0  0  0  0  0  0  0  0  0  0
  -34.1221   68.3188   59.2445 H   0  0  0  0  0  0  0  0  0  0  0  0
  -33.0638   69.7408   59.0601 H   0  0  0  0  0  0  0  0  0  0  0  0
  -33.4293   67.5876   57.0370 H   0  0  0  0  0  0  0  0  0  0  0  0
  -32.0546   67.7803   58.1390 H   0  0  0  0  0  0  0  0  0  0  0  0
  -32.8663   69.7115   56.0083 H   0  0  0  0  0  0  0  0  0  0  0  0
  -31.5072   68.6156   55.9385 H   0  0  0  0  0  0  0  0  0  0  0  0
  -31.5294   69.9059   57.1165 H   0  0  0  0  0  0  0  0  0  0  0  0
  -32.1486   68.5400   64.6687 H   0  0  0  0  0  0  0  0  0  0  0  0
  -29.6327   67.0681   65.4416 H   0  0  0  0  0  0  0  0  0  0  0  0
  -31.1294   69.1768   67.0080 H   0  0  0  0  0  0  0  0  0  0  0  0
  -29.3488   70.6437   66.5772 H   0  0  0  0  0  0  0  0  0  0  0  0
  -31.0858   70.6667   64.9665 H   0  0  0  0  0  0  0  0  0  0  0  0
  -28.4751   70.7586   63.5055 H   0  0  0  0  0  0  0  0  0  0  0  0
  -29.9937   71.4764   62.9711 H   0  0  0  0  0  0  0  0  0  0  0  0
  1  4  1  0  0  0  0
  1 31  1  0  0  0  0
  1 62  1  0  0  0  0
  2  3  1  0  0  0  0
  2  4  1  0  0  0  0
  2 63  1  0  0  0  0
  2 64  1  0  0  0  0
  3 55  1  0  0  0  0
  4  6  1  0  0  0  0
  4 65  1  6  0  0  0
  5  6  1  0  0  0  0
  5 66  1  0  0  0  0
  6  8  1  0  0  0  0
  6 67  1  1  0  0  0
  7 31  2  0  0  0  0
  8 10  2  0  0  0  0
  8 68  1  0  0  0  0
  9 56  1  0  0  0  0
  9 69  1  0  0  0  0
 10 12  1  0  0  0  0
 10 70  1  0  0  0  0
 11 57  1  0  0  0  0
 11 61  1  0  0  0  0
 12 14  1  0  0  0  0
 12 71  1  0  0  0  0
 12 72  1  0  0  0  0
 13 58  1  0  0  0  0
 13 73  1  0  0  0  0
 14 16  1  0  0  0  0
 14 74  1  0  0  0  0
 14 75  1  0  0  0  0
 15 55  1  0  0  0  0
 15 59  1  0  0  0  0
 16 18  1  0  0  0  0
 16 76  1  0  0  0  0
 16 77  1  0  0  0  0
 17 60  1  0  0  0  0
 17 78  1  0  0  0  0
 18 20  1  0  0  0  0
 18 79  1  0  0  0  0
 18 80  1  0  0  0  0
 19 61  1  0  0  0  0
 19 81  1  0  0  0  0
 20 22  1  0  0  0  0
 20 82  1  0  0  0  0
 20 83  1  0  0  0  0
 21 61  1  0  0  0  0
 22 24  1  0  0  0  0
 22 84  1  0  0  0  0
 22 85  1  0  0  0  0
 23 61  1  0  0  0  0
 23 86  1  0  0  0  0
 24 25  1  0  0  0  0
 24 87  1  0  0  0  0
 24 88  1  0  0  0  0
 25 26  1  0  0  0  0
 25 89  1  0  0  0  0
 25 90  1  0  0  0  0
 26 27  1  0  0  0  0
 26 91  1  0  0  0  0
 26 92  1  0  0  0  0
 27 28  1  0  0  0  0
 27 93  1  0  0  0  0
 27 94  1  0  0  0  0
 28 29  1  0  0  0  0
 28 95  1  0  0  0  0
 28 96  1  0  0  0  0
 29 30  1  0  0  0  0
 29 97  1  0  0  0  0
 29 98  1  0  0  0  0
 30 99  1  0  0  0  0
 30100  1  0  0  0  0
 30101  1  0  0  0  0
 31 32  1  0  0  0  0
 32 33  1  0  0  0  0
 32102  1  0  0  0  0
 32103  1  0  0  0  0
 33 34  1  0  0  0  0
 33104  1  0  0  0  0
 33105  1  0  0  0  0
 34 35  1  0  0  0  0
 34106  1  0  0  0  0
 34107  1  0  0  0  0
 35 36  1  0  0  0  0
 35108  1  0  0  0  0
 35109  1  0  0  0  0
 36 37  1  0  0  0  0
 36110  1  0  0  0  0
 36111  1  0  0  0  0
 37 38  1  0  0  0  0
 37112  1  0  0  0  0
 37113  1  0  0  0  0
 38 39  1  0  0  0  0
 38114  1  0  0  0  0
 38115  1  0  0  0  0
 39 40  1  0  0  0  0
 39116  1  0  0  0  0
 39117  1  0  0  0  0
 40 41  1  0  0  0  0
 40118  1  0  0  0  0
 40119  1  0  0  0  0
 41 42  1  0  0  0  0
 41120  1  0  0  0  0
 41121  1  0  0  0  0
 42 43  1  0  0  0  0
 42122  1  0  0  0  0
 42123  1  0  0  0  0
 43 44  1  0  0  0  0
 43124  1  0  0  0  0
 43125  1  0  0  0  0
 44 45  1  0  0  0  0
 44126  1  0  0  0  0
 44127  1  0  0  0  0
 45 46  2  0  0  0  0
 45128  1  0  0  0  0
 46 47  1  0  0  0  0
 46129  1  0  0  0  0
 47 48  1  0  0  0  0
 47130  1  0  0  0  0
 47131  1  0  0  0  0
 48 49  1  0  0  0  0
 48132  1  0  0  0  0
 48133  1  0  0  0  0
 49 50  1  0  0  0  0
 49134  1  0  0  0  0
 49135  1  0  0  0  0
 50 51  1  0  0  0  0
 50136  1  0  0  0  0
 50137  1  0  0  0  0
 51 52  1  0  0  0  0
 51138  1  0  0  0  0
 51139  1  0  0  0  0
 52 53  1  0  0  0  0
 52140  1  0  0  0  0
 52141  1  0  0  0  0
 53 54  1  0  0  0  0
 53142  1  0  0  0  0
 53143  1  0  0  0  0
 54144  1  0  0  0  0
 54145  1  0  0  0  0
 54146  1  0  0  0  0
 55 56  1  0  0  0  0
 55147  1  1  0  0  0
 56 57  1  0  0  0  0
 56148  1  6  0  0  0
 57 58  1  0  0  0  0
 57149  1  1  0  0  0
 58 59  1  0  0  0  0
 58150  1  1  0  0  0
 59 60  1  0  0  0  0
 59151  1  1  0  0  0
 60152  1  0  0  0  0
 60153  1  0  0  0  0
M  CHG  1  21  -1
M  END
$$$$