/media/chris/experiments/cd1a-new-docking/inputs/ligands/7ryn_ligand.pdb
 OpenBabel07032312553D

153153  0  0  1  0  0  0  0  0999 V2000
  -33.0340   65.1330   62.2120 N   0  0  0  0  0  0  0  0  0  0  0  0
  -32.0220   67.3480   62.3220 C   0  0  0  0  0  0  0  0  0  0  0  0
  -33.3204   67.9104   62.5424 O   0  0  0  0  0  0  0  0  0  0  0  0
  -32.1830   66.0840   61.5030 C   0  0  1  0  0  0  0  0  0  0  0  0
  -30.2154   65.0225   62.4176 O   0  0  0  0  0  0  0  0  0  0  0  0
  -30.8310   65.4230   61.1900 C   0  0  2  0  0  0  0  0  0  0  0  0
  -34.9746   65.8457   61.3210 O   0  0  0  0  0  0  0  0  0  0  0  0
  -29.9369   66.3439   60.4177 C   0  0  0  0  0  0  0  0  0  0  0  0
  -36.1193   67.8488   62.4832 O   0  0  0  0  0  0  0  0  0  0  0  0
  -29.8817   66.4205   59.1027 C   0  0  0  0  0  0  0  0  0  0  0  0
  -37.2741   70.0030   61.0417 O   0  0  0  0  0  0  0  0  0  0  0  0
  -28.9891   67.3610   58.3614 C   0  0  0  0  0  0  0  0  0  0  0  0
  -35.0443   71.4283   60.3491 O   0  0  0  0  0  0  0  0  0  0  0  0
  -28.7353   68.6333   59.1725 C   0  0  0  0  0  0  0  0  0  0  0  0
  -33.2780   69.1723   60.6099 O   0  0  0  0  0  0  0  0  0  0  0  0
  -27.8463   69.6500   58.4749 C   0  0  0  0  0  0  0  0  0  0  0  0
  -33.5192   70.8595   57.3883 O   0  0  0  0  0  0  0  0  0  0  0  0
  -26.4628   69.1316   58.1214 C   0  0  0  0  0  0  0  0  0  0  0  0
  -39.3056   70.1773   62.3260 O   0  0  0  0  0  0  0  0  0  0  0  0
  -25.5726   70.1598   57.4386 C   0  0  0  0  0  0  0  0  0  0  0  0
  -37.5532   68.4804   62.9303 O   0  5  0  0  0  0  0  0  0  0  0  0
  -25.3046   71.3943   58.2856 C   0  0  0  0  0  0  0  0  0  0  0  0
  -38.8935   68.2577   60.9834 O   0  0  0  0  0  0  0  0  0  0  0  0
  -24.4303   72.4291   57.5994 C   0  0  0  0  0  0  0  0  0  0  0  0
  -24.1449   73.6560   58.4453 C   0  0  0  0  0  0  0  0  0  0  0  0
  -25.3912   74.4111   58.8745 C   0  0  0  0  0  0  0  0  0  0  0  0
  -26.3319   73.5722   59.7194 C   0  0  0  0  0  0  0  0  0  0  0  0
  -27.5955   74.2912   60.1513 C   0  0  0  0  0  0  0  0  0  0  0  0
  -28.4968   73.4224   61.0064 C   0  0  0  0  0  0  0  0  0  0  0  0
  -29.7663   74.1363   61.4227 C   0  0  0  0  0  0  0  0  0  0  0  0
  -34.3610   65.0876   62.0665 C   0  0  0  0  0  0  0  0  0  0  0  0
  -35.0703   64.0312   62.8766 C   0  0  0  0  0  0  0  0  0  0  0  0
  -35.8339   63.0413   62.0062 C   0  0  0  0  0  0  0  0  0  0  0  0
  -36.8908   63.7122   61.1437 C   0  0  0  0  0  0  0  0  0  0  0  0
  -37.6814   62.7473   60.2759 C   0  0  0  0  0  0  0  0  0  0  0  0
  -38.7271   63.4220   59.4008 C   0  0  0  0  0  0  0  0  0  0  0  0
  -39.7740   64.2078   60.1801 C   0  0  0  0  0  0  0  0  0  0  0  0
  -39.1976   65.3448   61.0140 C   0  0  0  0  0  0  0  0  0  0  0  0
  -40.2326   66.1313   61.8144 C   0  0  0  0  0  0  0  0  0  0  0  0
  -41.3152   66.7858   60.9578 C   0  0  0  0  0  0  0  0  0  0  0  0
  -42.3494   67.5913   61.7439 C   0  0  0  0  0  0  0  0  0  0  0  0
  -43.4293   68.2200   60.8630 C   0  0  0  0  0  0  0  0  0  0  0  0
  -44.2727   67.2263   60.0644 C   0  0  0  0  0  0  0  0  0  0  0  0
  -45.0619   66.2238   60.9106 C   0  0  0  0  0  0  0  0  0  0  0  0
  -46.0461   66.8853   61.8316 C   0  0  0  0  0  0  0  0  0  0  0  0
  -46.0601   66.7960   63.1498 C   0  0  0  0  0  0  0  0  0  0  0  0
  -45.0941   66.0183   63.9912 C   0  0  0  0  0  0  0  0  0  0  0  0
  -45.7558   64.9312   64.8409 C   0  0  0  0  0  0  0  0  0  0  0  0
  -44.7686   64.1580   65.7050 C   0  0  0  0  0  0  0  0  0  0  0  0
  -43.6818   63.4544   64.8999 C   0  0  0  0  0  0  0  0  0  0  0  0
  -42.6893   62.6585   65.7397 C   0  0  0  0  0  0  0  0  0  0  0  0
  -41.9392   63.4997   66.7629 C   0  0  0  0  0  0  0  0  0  0  0  0
  -41.1288   64.6363   66.1602 C   0  0  0  0  0  0  0  0  0  0  0  0
  -40.3810   65.4437   67.2018 C   0  0  0  0  0  0  0  0  0  0  0  0
  -34.0138   68.2339   61.3725 C   0  0  2  0  0  0  0  0  0  0  0  0
  -35.3627   68.8190   61.7702 C   0  0  1  0  0  0  0  0  0  0  0  0
  -36.1194   69.2678   60.5264 C   0  0  2  0  0  0  0  0  0  0  0  0
  -35.2668   70.1951   59.6728 C   0  0  2  0  0  0  0  0  0  0  0  0
  -33.9243   69.5307   59.3780 C   0  0  1  0  0  0  0  0  0  0  0  0
  -32.9686   70.4285   58.6276 C   0  0  0  0  0  0  0  0  0  0  0  0
  -38.2920   69.2449   61.9971 S   0  0  0  0  0  0  0  0  0  0  0  0
  -32.6087   64.4935   62.8279 H   0  0  0  0  0  0  0  0  0  0  0  0
  -31.5648   67.1148   63.2609 H   0  0  0  0  0  0  0  0  0  0  0  0
  -31.4012   68.0473   61.8019 H   0  0  0  0  0  0  0  0  0  0  0  0
  -32.6374   66.3625   60.5752 H   0  0  0  0  0  0  0  0  0  0  0  0
  -30.8116   64.4280   62.8994 H   0  0  0  0  0  0  0  0  0  0  0  0
  -30.9971   64.5628   60.5757 H   0  0  0  0  0  0  0  0  0  0  0  0
  -29.3156   66.9669   60.9570 H   0  0  0  0  0  0  0  0  0  0  0  0
  -35.6277   67.5712   63.2720 H   0  0  0  0  0  0  0  0  0  0  0  0
  -30.4908   65.7941   58.5535 H   0  0  0  0  0  0  0  0  0  0  0  0
  -29.4524   67.6245   57.4336 H   0  0  0  0  0  0  0  0  0  0  0  0
  -28.0516   66.8751   58.1886 H   0  0  0  0  0  0  0  0  0  0  0  0
  -35.8963   71.8521   60.5374 H   0  0  0  0  0  0  0  0  0  0  0  0
  -28.2684   68.3559   60.0945 H   0  0  0  0  0  0  0  0  0  0  0  0
  -29.6864   69.1025   59.3142 H   0  0  0  0  0  0  0  0  0  0  0  0
  -27.7325   70.4951   59.1212 H   0  0  0  0  0  0  0  0  0  0  0  0
  -28.3272   69.8950   57.5510 H   0  0  0  0  0  0  0  0  0  0  0  0
  -32.8823   71.4323   56.9333 H   0  0  0  0  0  0  0  0  0  0  0  0
  -26.5748   68.2944   57.4646 H   0  0  0  0  0  0  0  0  0  0  0  0
  -25.9849   68.8713   59.0427 H   0  0  0  0  0  0  0  0  0  0  0  0
  -38.9597   70.8184   62.9666 H   0  0  0  0  0  0  0  0  0  0  0  0
  -26.0481   70.4691   56.5314 H   0  0  0  0  0  0  0  0  0  0  0  0
  -24.6278   69.6889   57.2639 H   0  0  0  0  0  0  0  0  0  0  0  0
  -24.8181   71.0858   59.1873 H   0  0  0  0  0  0  0  0  0  0  0  0
  -26.2512   71.8580   58.4696 H   0  0  0  0  0  0  0  0  0  0  0  0
  -39.4101   68.7464   60.3236 H   0  0  0  0  0  0  0  0  0  0  0  0
  -24.9233   72.7453   56.7039 H   0  0  0  0  0  0  0  0  0  0  0  0
  -23.4881   71.9597   57.4079 H   0  0  0  0  0  0  0  0  0  0  0  0
  -23.5273   74.3203   57.8777 H   0  0  0  0  0  0  0  0  0  0  0  0
  -23.6665   73.3129   59.3387 H   0  0  0  0  0  0  0  0  0  0  0  0
  -25.9145   74.7315   57.9979 H   0  0  0  0  0  0  0  0  0  0  0  0
  -25.0734   75.2378   59.4749 H   0  0  0  0  0  0  0  0  0  0  0  0
  -25.8061   73.2624   60.5983 H   0  0  0  0  0  0  0  0  0  0  0  0
  -26.6417   72.7508   59.1076 H   0  0  0  0  0  0  0  0  0  0  0  0
  -28.1358   74.5897   59.2773 H   0  0  0  0  0  0  0  0  0  0  0  0
  -27.3031   75.1346   60.7413 H   0  0  0  0  0  0  0  0  0  0  0  0
  -27.9610   73.1341   61.8866 H   0  0  0  0  0  0  0  0  0  0  0  0
  -28.7790   72.5722   60.4213 H   0  0  0  0  0  0  0  0  0  0  0  0
  -29.5164   74.9942   62.0113 H   0  0  0  0  0  0  0  0  0  0  0  0
  -30.3757   73.4729   62.0000 H   0  0  0  0  0  0  0  0  0  0  0  0
  -30.3035   74.4462   60.5507 H   0  0  0  0  0  0  0  0  0  0  0  0
  -35.7619   64.5121   63.5364 H   0  0  0  0  0  0  0  0  0  0  0  0
  -34.3269   63.4826   63.4163 H   0  0  0  0  0  0  0  0  0  0  0  0
  -36.3137   62.3262   62.6413 H   0  0  0  0  0  0  0  0  0  0  0  0
  -35.1281   62.5766   61.3498 H   0  0  0  0  0  0  0  0  0  0  0  0
  -36.4047   64.4193   60.5044 H   0  0  0  0  0  0  0  0  0  0  0  0
  -37.5889   64.1733   61.8106 H   0  0  0  0  0  0  0  0  0  0  0  0
  -38.1777   62.0478   60.9156 H   0  0  0  0  0  0  0  0  0  0  0  0
  -36.9818   62.2762   59.6175 H   0  0  0  0  0  0  0  0  0  0  0  0
  -39.2279   62.6667   58.8319 H   0  0  0  0  0  0  0  0  0  0  0  0
  -38.2075   64.1256   58.7845 H   0  0  0  0  0  0  0  0  0  0  0  0
  -40.2824   63.5327   60.8365 H   0  0  0  0  0  0  0  0  0  0  0  0
  -40.4290   64.6518   59.4599 H   0  0  0  0  0  0  0  0  0  0  0  0
  -38.6992   66.0237   60.3541 H   0  0  0  0  0  0  0  0  0  0  0  0
  -38.5392   64.8950   61.7275 H   0  0  0  0  0  0  0  0  0  0  0  0
  -39.7240   66.8996   62.3586 H   0  0  0  0  0  0  0  0  0  0  0  0
  -40.7263   65.4304   62.4546 H   0  0  0  0  0  0  0  0  0  0  0  0
  -41.8292   66.0145   60.4232 H   0  0  0  0  0  0  0  0  0  0  0  0
  -40.8148   67.4803   60.3157 H   0  0  0  0  0  0  0  0  0  0  0  0
  -41.8421   68.3738   62.2685 H   0  0  0  0  0  0  0  0  0  0  0  0
  -42.8408   66.9107   62.4075 H   0  0  0  0  0  0  0  0  0  0  0  0
  -42.9498   68.8799   60.1705 H   0  0  0  0  0  0  0  0  0  0  0  0
  -44.1041   68.7179   61.5276 H   0  0  0  0  0  0  0  0  0  0  0  0
  -43.6178   66.6758   59.4218 H   0  0  0  0  0  0  0  0  0  0  0  0
  -44.9977   67.8071   59.5335 H   0  0  0  0  0  0  0  0  0  0  0  0
  -44.3721   65.6557   61.4990 H   0  0  0  0  0  0  0  0  0  0  0  0
  -45.6172   65.6030   60.2389 H   0  0  0  0  0  0  0  0  0  0  0  0
  -46.7802   67.4638   61.3941 H   0  0  0  0  0  0  0  0  0  0  0  0
  -46.8054   67.3093   63.6459 H   0  0  0  0  0  0  0  0  0  0  0  0
  -44.5915   66.6995   64.6457 H   0  0  0  0  0  0  0  0  0  0  0  0
  -44.4215   65.5253   63.3208 H   0  0  0  0  0  0  0  0  0  0  0  0
  -46.2477   64.2416   64.1871 H   0  0  0  0  0  0  0  0  0  0  0  0
  -46.4414   65.4190   65.5019 H   0  0  0  0  0  0  0  0  0  0  0  0
  -45.3093   63.4212   66.2614 H   0  0  0  0  0  0  0  0  0  0  0  0
  -44.2816   64.8677   66.3407 H   0  0  0  0  0  0  0  0  0  0  0  0
  -43.1379   64.1960   64.3529 H   0  0  0  0  0  0  0  0  0  0  0  0
  -44.1795   62.7496   64.2670 H   0  0  0  0  0  0  0  0  0  0  0  0
  -41.9744   62.2097   65.0823 H   0  0  0  0  0  0  0  0  0  0  0  0
  -43.2543   61.9326   66.2862 H   0  0  0  0  0  0  0  0  0  0  0  0
  -41.2712   62.8588   67.2995 H   0  0  0  0  0  0  0  0  0  0  0  0
  -42.6780   63.9489   67.3933 H   0  0  0  0  0  0  0  0  0  0  0  0
  -41.7944   65.2892   65.6352 H   0  0  0  0  0  0  0  0  0  0  0  0
  -40.4010   64.2011   65.5077 H   0  0  0  0  0  0  0  0  0  0  0  0
  -41.0810   65.8947   67.8736 H   0  0  0  0  0  0  0  0  0  0  0  0
  -39.8085   66.2072   66.7177 H   0  0  0  0  0  0  0  0  0  0  0  0
  -39.7253   64.7994   67.7494 H   0  0  0  0  0  0  0  0  0  0  0  0
  -34.1535   67.3589   60.7727 H   0  0  0  0  0  0  0  0  0  0  0  0
  -35.2053   69.6672   62.4032 H   0  0  0  0  0  0  0  0  0  0  0  0
  -36.3912   68.4373   59.9090 H   0  0  0  0  0  0  0  0  0  0  0  0
  -35.7838   70.3893   58.7563 H   0  0  0  0  0  0  0  0  0  0  0  0
  -34.1465   68.6773   58.7719 H   0  0  0  0  0  0  0  0  0  0  0  0
  -32.7534   71.2867   59.2293 H   0  0  0  0  0  0  0  0  0  0  0  0
  -32.0777   69.8724   58.4228 H   0  0  0  0  0  0  0  0  0  0  0  0
  1  4  1  0  0  0  0
  1 31  1  0  0  0  0
  1 62  1  0  0  0  0
  2  3  1  0  0  0  0
  2  4  1  0  0  0  0
  2 63  1  0  0  0  0
  2 64  1  0  0  0  0
  3 55  1  0  0  0  0
  4  6  1  0  0  0  0
  4 65  1  6  0  0  0
  5  6  1  0  0  0  0
  5 66  1  0  0  0  0
  6  8  1  0  0  0  0
  6 67  1  6  0  0  0
  7 31  2  0  0  0  0
  8 10  2  0  0  0  0
  8 68  1  0  0  0  0
  9 56  1  0  0  0  0
  9 69  1  0  0  0  0
 10 12  1  0  0  0  0
 10 70  1  0  0  0  0
 11 57  1  0  0  0  0
 11 61  1  0  0  0  0
 12 14  1  0  0  0  0
 12 71  1  0  0  0  0
 12 72  1  0  0  0  0
 13 58  1  0  0  0  0
 13 73  1  0  0  0  0
 14 16  1  0  0  0  0
 14 74  1  0  0  0  0
 14 75  1  0  0  0  0
 15 55  1  0  0  0  0
 15 59  1  0  0  0  0
 16 18  1  0  0  0  0
 16 76  1  0  0  0  0
 16 77  1  0  0  0  0
 17 60  1  0  0  0  0
 17 78  1  0  0  0  0
 18 20  1  0  0  0  0
 18 79  1  0  0  0  0
 18 80  1  0  0  0  0
 19 61  1  0  0  0  0
 19 81  1  0  0  0  0
 20 22  1  0  0  0  0
 20 82  1  0  0  0  0
 20 83  1  0  0  0  0
 21 61  1  0  0  0  0
 22 24  1  0  0  0  0
 22 84  1  0  0  0  0
 22 85  1  0  0  0  0
 23 61  1  0  0  0  0
 23 86  1  0  0  0  0
 24 25  1  0  0  0  0
 24 87  1  0  0  0  0
 24 88  1  0  0  0  0
 25 26  1  0  0  0  0
 25 89  1  0  0  0  0
 25 90  1  0  0  0  0
 26 27  1  0  0  0  0
 26 91  1  0  0  0  0
 26 92  1  0  0  0  0
 27 28  1  0  0  0  0
 27 93  1  0  0  0  0
 27 94  1  0  0  0  0
 28 29  1  0  0  0  0
 28 95  1  0  0  0  0
 28 96  1  0  0  0  0
 29 30  1  0  0  0  0
 29 97  1  0  0  0  0
 29 98  1  0  0  0  0
 30 99  1  0  0  0  0
 30100  1  0  0  0  0
 30101  1  0  0  0  0
 31 32  1  0  0  0  0
 32 33  1  0  0  0  0
 32102  1  0  0  0  0
 32103  1  0  0  0  0
 33 34  1  0  0  0  0
 33104  1  0  0  0  0
 33105  1  0  0  0  0
 34 35  1  0  0  0  0
 34106  1  0  0  0  0
 34107  1  0  0  0  0
 35 36  1  0  0  0  0
 35108  1  0  0  0  0
 35109  1  0  0  0  0
 36 37  1  0  0  0  0
 36110  1  0  0  0  0
 36111  1  0  0  0  0
 37 38  1  0  0  0  0
 37112  1  0  0  0  0
 37113  1  0  0  0  0
 38 39  1  0  0  0  0
 38114  1  0  0  0  0
 38115  1  0  0  0  0
 39 40  1  0  0  0  0
 39116  1  0  0  0  0
 39117  1  0  0  0  0
 40 41  1  0  0  0  0
 40118  1  0  0  0  0
 40119  1  0  0  0  0
 41 42  1  0  0  0  0
 41120  1  0  0  0  0
 41121  1  0  0  0  0
 42 43  1  0  0  0  0
 42122  1  0  0  0  0
 42123  1  0  0  0  0
 43 44  1  0  0  0  0
 43124  1  0  0  0  0
 43125  1  0  0  0  0
 44 45  1  0  0  0  0
 44126  1  0  0  0  0
 44127  1  0  0  0  0
 45 46  2  0  0  0  0
 45128  1  0  0  0  0
 46 47  1  0  0  0  0
 46129  1  0  0  0  0
 47 48  1  0  0  0  0
 47130  1  0  0  0  0
 47131  1  0  0  0  0
 48 49  1  0  0  0  0
 48132  1  0  0  0  0
 48133  1  0  0  0  0
 49 50  1  0  0  0  0
 49134  1  0  0  0  0
 49135  1  0  0  0  0
 50 51  1  0  0  0  0
 50136  1  0  0  0  0
 50137  1  0  0  0  0
 51 52  1  0  0  0  0
 51138  1  0  0  0  0
 51139  1  0  0  0  0
 52 53  1  0  0  0  0
 52140  1  0  0  0  0
 52141  1  0  0  0  0
 53 54  1  0  0  0  0
 53142  1  0  0  0  0
 53143  1  0  0  0  0
 54144  1  0  0  0  0
 54145  1  0  0  0  0
 54146  1  0  0  0  0
 55 56  1  0  0  0  0
 55147  1  6  0  0  0
 56 57  1  0  0  0  0
 56148  1  1  0  0  0
 57 58  1  0  0  0  0
 57149  1  6  0  0  0
 58 59  1  0  0  0  0
 58150  1  6  0  0  0
 59 60  1  0  0  0  0
 59151  1  6  0  0  0
 60152  1  0  0  0  0
 60153  1  0  0  0  0
M  CHG  1  21  -1
M  END
$$$$