/media/chris/experiments/cd1a-new-docking/inputs/ligands/7ryn_ligand.pdb
 OpenBabel07032312553D

153153  0  0  1  0  0  0  0  0999 V2000
  -33.0340   65.1330   62.2120 N   0  0  0  0  0  0  0  0  0  0  0  0
  -32.0220   67.3480   62.3220 C   0  0  0  0  0  0  0  0  0  0  0  0
  -31.4051   67.0024   63.5673 O   0  0  0  0  0  0  0  0  0  0  0  0
  -32.1830   66.0840   61.5030 C   0  0  1  0  0  0  0  0  0  0  0  0
  -29.9992   66.3678   60.5104 O   0  0  0  0  0  0  0  0  0  0  0  0
  -30.8310   65.4230   61.1900 C   0  0  2  0  0  0  0  0  0  0  0  0
  -34.2576   66.6787   63.2990 O   0  0  0  0  0  0  0  0  0  0  0  0
  -31.0055   64.1786   60.3744 C   0  0  0  0  0  0  0  0  0  0  0  0
  -29.0472   68.5087   63.4560 O   0  0  0  0  0  0  0  0  0  0  0  0
  -32.0597   63.3881   60.4139 C   0  0  0  0  0  0  0  0  0  0  0  0
  -29.4663   71.3004   63.7442 O   0  0  0  0  0  0  0  0  0  0  0  0
  -32.2106   62.1609   59.5761 C   0  0  0  0  0  0  0  0  0  0  0  0
  -32.1950   71.4092   63.9043 O   0  0  0  0  0  0  0  0  0  0  0  0
  -32.8943   62.4834   58.2459 C   0  0  0  0  0  0  0  0  0  0  0  0
  -32.4523   68.6756   64.7639 O   0  0  0  0  0  0  0  0  0  0  0  0
  -33.0993   61.2782   57.3424 C   0  0  0  0  0  0  0  0  0  0  0  0
  -34.4615   70.6093   64.8705 O   0  0  0  0  0  0  0  0  0  0  0  0
  -33.7628   61.5990   56.0140 C   0  0  0  0  0  0  0  0  0  0  0  0
  -28.4817   73.4554   63.3041 O   0  0  0  0  0  0  0  0  0  0  0  0
  -32.9773   62.5746   55.1497 C   0  0  0  0  0  0  0  0  0  0  0  0
  -28.5846   72.5516   65.6468 O   0  5  0  0  0  0  0  0  0  0  0  0
  -33.6561   62.9039   53.8290 C   0  0  0  0  0  0  0  0  0  0  0  0
  -30.5292   73.2918   64.5035 O   0  0  0  0  0  0  0  0  0  0  0  0
  -35.0196   63.5535   53.9872 C   0  0  0  0  0  0  0  0  0  0  0  0
  -34.9917   64.8761   54.7304 C   0  0  0  0  0  0  0  0  0  0  0  0
  -34.1492   65.9443   54.0546 C   0  0  0  0  0  0  0  0  0  0  0  0
  -34.1215   67.2525   54.8229 C   0  0  0  0  0  0  0  0  0  0  0  0
  -33.5440   67.1454   56.2212 C   0  0  0  0  0  0  0  0  0  0  0  0
  -33.5514   68.4706   56.9576 C   0  0  0  0  0  0  0  0  0  0  0  0
  -32.9586   68.3655   58.3476 C   0  0  0  0  0  0  0  0  0  0  0  0
  -34.0033   65.5031   63.0532 C   0  0  0  0  0  0  0  0  0  0  0  0
  -34.7826   64.3775   63.6864 C   0  0  0  0  0  0  0  0  0  0  0  0
  -36.2686   64.4370   63.3565 C   0  0  0  0  0  0  0  0  0  0  0  0
  -37.0593   63.3134   64.0074 C   0  0  0  0  0  0  0  0  0  0  0  0
  -36.5985   61.9224   63.6050 C   0  0  0  0  0  0  0  0  0  0  0  0
  -37.4017   60.7993   64.2439 C   0  0  0  0  0  0  0  0  0  0  0  0
  -36.9318   59.4031   63.8562 C   0  0  0  0  0  0  0  0  0  0  0  0
  -36.9837   59.1283   62.3588 C   0  0  0  0  0  0  0  0  0  0  0  0
  -36.5318   57.7270   61.9556 C   0  0  0  0  0  0  0  0  0  0  0  0
  -36.5722   57.4695   60.4502 C   0  0  0  0  0  0  0  0  0  0  0  0
  -36.1386   56.0646   60.0323 C   0  0  0  0  0  0  0  0  0  0  0  0
  -36.1727   55.8413   58.5202 C   0  0  0  0  0  0  0  0  0  0  0  0
  -37.5409   56.0384   57.8676 C   0  0  0  0  0  0  0  0  0  0  0  0
  -37.5752   55.7975   56.3560 C   0  0  0  0  0  0  0  0  0  0  0  0
  -36.6435   56.7002   55.6003 C   0  0  0  0  0  0  0  0  0  0  0  0
  -36.6746   58.0211   55.5930 C   0  0  0  0  0  0  0  0  0  0  0  0
  -37.6452   58.8844   56.3406 C   0  0  0  0  0  0  0  0  0  0  0  0
  -37.1697   59.2720   57.7424 C   0  0  0  0  0  0  0  0  0  0  0  0
  -38.1699   60.1348   58.5004 C   0  0  0  0  0  0  0  0  0  0  0  0
  -38.4962   61.4454   57.7933 C   0  0  0  0  0  0  0  0  0  0  0  0
  -39.1189   61.2793   56.4118 C   0  0  0  0  0  0  0  0  0  0  0  0
  -40.4432   60.5288   56.4226 C   0  0  0  0  0  0  0  0  0  0  0  0
  -41.0643   60.3430   55.0473 C   0  0  0  0  0  0  0  0  0  0  0  0
  -42.3887   59.6081   55.0932 C   0  0  0  0  0  0  0  0  0  0  0  0
  -31.2104   68.0828   64.4327 C   0  0  2  0  0  0  0  0  0  0  0  0
  -30.3138   69.0941   63.7304 C   0  0  1  0  0  0  0  0  0  0  0  0
  -30.1449   70.3308   64.6038 C   0  0  2  0  0  0  0  0  0  0  0  0
  -31.4954   70.8877   65.0296 C   0  0  2  0  0  0  0  0  0  0  0  0
  -32.3266   69.7807   65.6732 C   0  0  1  0  0  0  0  0  0  0  0  0
  -33.7288   70.2187   66.0260 C   0  0  0  0  0  0  0  0  0  0  0  0
  -29.1081   72.7269   64.3444 S   0  0  0  0  0  0  0  0  0  0  0  0
  -32.8861   64.1712   62.0627 H   0  0  0  0  0  0  0  0  0  0  0  0
  -31.4053   68.0450   61.7940 H   0  0  0  0  0  0  0  0  0  0  0  0
  -32.9770   67.7979   62.4965 H   0  0  0  0  0  0  0  0  0  0  0  0
  -32.6374   66.3625   60.5752 H   0  0  0  0  0  0  0  0  0  0  0  0
  -29.9008   67.1635   61.0564 H   0  0  0  0  0  0  0  0  0  0  0  0
  -30.3647   65.1308   62.1077 H   0  0  0  0  0  0  0  0  0  0  0  0
  -30.2407   63.9200   59.7315 H   0  0  0  0  0  0  0  0  0  0  0  0
  -29.1677   67.7231   62.8999 H   0  0  0  0  0  0  0  0  0  0  0  0
  -32.8255   63.6315   61.0615 H   0  0  0  0  0  0  0  0  0  0  0  0
  -32.8013   61.4448   60.1082 H   0  0  0  0  0  0  0  0  0  0  0  0
  -31.2370   61.7671   59.3714 H   0  0  0  0  0  0  0  0  0  0  0  0
  -31.6684   72.1129   63.4939 H   0  0  0  0  0  0  0  0  0  0  0  0
  -32.2916   63.1962   57.7229 H   0  0  0  0  0  0  0  0  0  0  0  0
  -33.8678   62.8586   58.4835 H   0  0  0  0  0  0  0  0  0  0  0  0
  -33.7121   60.5709   57.8610 H   0  0  0  0  0  0  0  0  0  0  0  0
  -32.1259   60.8967   57.1147 H   0  0  0  0  0  0  0  0  0  0  0  0
  -35.3545   70.8838   65.1313 H   0  0  0  0  0  0  0  0  0  0  0  0
  -34.7245   62.0241   56.2122 H   0  0  0  0  0  0  0  0  0  0  0  0
  -33.8228   60.6807   55.4681 H   0  0  0  0  0  0  0  0  0  0  0  0
  -27.5791   73.1242   63.1756 H   0  0  0  0  0  0  0  0  0  0  0  0
  -32.0201   62.1451   54.9397 H   0  0  0  0  0  0  0  0  0  0  0  0
  -32.9022   63.4895   55.6996 H   0  0  0  0  0  0  0  0  0  0  0  0
  -33.7769   61.9959   53.2760 H   0  0  0  0  0  0  0  0  0  0  0  0
  -33.0305   63.6101   53.3242 H   0  0  0  0  0  0  0  0  0  0  0  0
  -30.9236   73.4264   63.6276 H   0  0  0  0  0  0  0  0  0  0  0  0
  -35.6531   62.8791   54.5244 H   0  0  0  0  0  0  0  0  0  0  0  0
  -35.3795   63.7607   53.0010 H   0  0  0  0  0  0  0  0  0  0  0  0
  -34.5957   64.7041   55.7094 H   0  0  0  0  0  0  0  0  0  0  0  0
  -35.9972   65.2413   54.7524 H   0  0  0  0  0  0  0  0  0  0  0  0
  -34.5511   66.1296   53.0804 H   0  0  0  0  0  0  0  0  0  0  0  0
  -33.1447   65.5784   54.0097 H   0  0  0  0  0  0  0  0  0  0  0  0
  -35.1249   67.6155   54.9021 H   0  0  0  0  0  0  0  0  0  0  0  0
  -33.4808   67.9135   54.2775 H   0  0  0  0  0  0  0  0  0  0  0  0
  -32.5342   66.7988   56.1494 H   0  0  0  0  0  0  0  0  0  0  0  0
  -34.1565   66.4639   56.7737 H   0  0  0  0  0  0  0  0  0  0  0  0
  -34.5623   68.8114   57.0406 H   0  0  0  0  0  0  0  0  0  0  0  0
  -32.9496   69.1564   56.3986 H   0  0  0  0  0  0  0  0  0  0  0  0
  -33.5405   67.6844   58.9328 H   0  0  0  0  0  0  0  0  0  0  0  0
  -32.9644   69.3296   58.8116 H   0  0  0  0  0  0  0  0  0  0  0  0
  -31.9523   68.0082   58.2801 H   0  0  0  0  0  0  0  0  0  0  0  0
  -34.6646   64.4337   64.7484 H   0  0  0  0  0  0  0  0  0  0  0  0
  -34.4000   63.4579   63.2955 H   0  0  0  0  0  0  0  0  0  0  0  0
  -36.3867   64.3686   62.2953 H   0  0  0  0  0  0  0  0  0  0  0  0
  -36.6476   65.3621   63.7380 H   0  0  0  0  0  0  0  0  0  0  0  0
  -38.0873   63.4209   63.7307 H   0  0  0  0  0  0  0  0  0  0  0  0
  -36.9069   63.3976   65.0631 H   0  0  0  0  0  0  0  0  0  0  0  0
  -35.5741   61.8102   63.8929 H   0  0  0  0  0  0  0  0  0  0  0  0
  -36.7385   61.8421   62.5473 H   0  0  0  0  0  0  0  0  0  0  0  0
  -38.4239   60.9051   63.9460 H   0  0  0  0  0  0  0  0  0  0  0  0
  -37.2696   60.8876   65.3021 H   0  0  0  0  0  0  0  0  0  0  0  0
  -37.5549   58.6881   64.3517 H   0  0  0  0  0  0  0  0  0  0  0  0
  -35.9058   59.3276   64.1506 H   0  0  0  0  0  0  0  0  0  0  0  0
  -36.3514   59.8377   61.8669 H   0  0  0  0  0  0  0  0  0  0  0  0
  -38.0105   59.2116   62.0698 H   0  0  0  0  0  0  0  0  0  0  0  0
  -37.1714   57.0162   62.4358 H   0  0  0  0  0  0  0  0  0  0  0  0
  -35.5098   57.6325   62.2583 H   0  0  0  0  0  0  0  0  0  0  0  0
  -35.9235   58.1744   59.9736 H   0  0  0  0  0  0  0  0  0  0  0  0
  -37.5949   57.5718   60.1528 H   0  0  0  0  0  0  0  0  0  0  0  0
  -36.7940   55.3562   60.4943 H   0  0  0  0  0  0  0  0  0  0  0  0
  -35.1230   55.9419   60.3461 H   0  0  0  0  0  0  0  0  0  0  0  0
  -35.8537   54.8387   58.3257 H   0  0  0  0  0  0  0  0  0  0  0  0
  -35.5293   56.5827   58.0944 H   0  0  0  0  0  0  0  0  0  0  0  0
  -37.8547   57.0448   58.0510 H   0  0  0  0  0  0  0  0  0  0  0  0
  -38.1889   55.3065   58.3027 H   0  0  0  0  0  0  0  0  0  0  0  0
  -38.5723   55.9655   56.0059 H   0  0  0  0  0  0  0  0  0  0  0  0
  -37.2575   54.7905   56.1836 H   0  0  0  0  0  0  0  0  0  0  0  0
  -35.9100   56.2465   55.0334 H   0  0  0  0  0  0  0  0  0  0  0  0
  -35.9649   58.5031   55.0194 H   0  0  0  0  0  0  0  0  0  0  0  0
  -38.5693   58.3527   56.4322 H   0  0  0  0  0  0  0  0  0  0  0  0
  -37.7502   59.7920   55.7837 H   0  0  0  0  0  0  0  0  0  0  0  0
  -36.2525   59.8154   57.6518 H   0  0  0  0  0  0  0  0  0  0  0  0
  -37.0480   58.3655   58.2978 H   0  0  0  0  0  0  0  0  0  0  0  0
  -37.7616   60.3612   59.4631 H   0  0  0  0  0  0  0  0  0  0  0  0
  -39.0806   59.5771   58.5686 H   0  0  0  0  0  0  0  0  0  0  0  0
  -37.5890   62.0025   57.6864 H   0  0  0  0  0  0  0  0  0  0  0  0
  -39.2244   61.9446   58.3977 H   0  0  0  0  0  0  0  0  0  0  0  0
  -38.4308   60.7412   55.7938 H   0  0  0  0  0  0  0  0  0  0  0  0
  -39.3200   62.2622   56.0397 H   0  0  0  0  0  0  0  0  0  0  0  0
  -41.1333   61.0744   57.0317 H   0  0  0  0  0  0  0  0  0  0  0  0
  -40.2391   59.5498   56.8031 H   0  0  0  0  0  0  0  0  0  0  0  0
  -40.3847   59.7843   54.4383 H   0  0  0  0  0  0  0  0  0  0  0  0
  -41.2511   61.3167   54.6449 H   0  0  0  0  0  0  0  0  0  0  0  0
  -42.2383   58.6267   55.4921 H   0  0  0  0  0  0  0  0  0  0  0  0
  -42.7896   59.5335   54.1040 H   0  0  0  0  0  0  0  0  0  0  0  0
  -43.0732   60.1452   55.7160 H   0  0  0  0  0  0  0  0  0  0  0  0
  -30.7515   67.7503   65.3403 H   0  0  0  0  0  0  0  0  0  0  0  0
  -30.7674   69.3839   62.8057 H   0  0  0  0  0  0  0  0  0  0  0  0
  -29.6019   70.1103   65.4990 H   0  0  0  0  0  0  0  0  0  0  0  0
  -31.3342   71.6761   65.7349 H   0  0  0  0  0  0  0  0  0  0  0  0
  -31.8112   69.5117   66.5715 H   0  0  0  0  0  0  0  0  0  0  0  0
  -34.2372   69.4060   66.5014 H   0  0  0  0  0  0  0  0  0  0  0  0
  -33.6613   71.0623   66.6807 H   0  0  0  0  0  0  0  0  0  0  0  0
  1  4  1  0  0  0  0
  1 31  1  0  0  0  0
  1 62  1  0  0  0  0
  2  3  1  0  0  0  0
  2  4  1  0  0  0  0
  2 63  1  0  0  0  0
  2 64  1  0  0  0  0
  3 55  1  0  0  0  0
  4  6  1  0  0  0  0
  4 65  1  6  0  0  0
  5  6  1  0  0  0  0
  5 66  1  0  0  0  0
  6  8  1  0  0  0  0
  6 67  1  1  0  0  0
  7 31  2  0  0  0  0
  8 10  2  0  0  0  0
  8 68  1  0  0  0  0
  9 56  1  0  0  0  0
  9 69  1  0  0  0  0
 10 12  1  0  0  0  0
 10 70  1  0  0  0  0
 11 57  1  0  0  0  0
 11 61  1  0  0  0  0
 12 14  1  0  0  0  0
 12 71  1  0  0  0  0
 12 72  1  0  0  0  0
 13 58  1  0  0  0  0
 13 73  1  0  0  0  0
 14 16  1  0  0  0  0
 14 74  1  0  0  0  0
 14 75  1  0  0  0  0
 15 55  1  0  0  0  0
 15 59  1  0  0  0  0
 16 18  1  0  0  0  0
 16 76  1  0  0  0  0
 16 77  1  0  0  0  0
 17 60  1  0  0  0  0
 17 78  1  0  0  0  0
 18 20  1  0  0  0  0
 18 79  1  0  0  0  0
 18 80  1  0  0  0  0
 19 61  1  0  0  0  0
 19 81  1  0  0  0  0
 20 22  1  0  0  0  0
 20 82  1  0  0  0  0
 20 83  1  0  0  0  0
 21 61  1  0  0  0  0
 22 24  1  0  0  0  0
 22 84  1  0  0  0  0
 22 85  1  0  0  0  0
 23 61  1  0  0  0  0
 23 86  1  0  0  0  0
 24 25  1  0  0  0  0
 24 87  1  0  0  0  0
 24 88  1  0  0  0  0
 25 26  1  0  0  0  0
 25 89  1  0  0  0  0
 25 90  1  0  0  0  0
 26 27  1  0  0  0  0
 26 91  1  0  0  0  0
 26 92  1  0  0  0  0
 27 28  1  0  0  0  0
 27 93  1  0  0  0  0
 27 94  1  0  0  0  0
 28 29  1  0  0  0  0
 28 95  1  0  0  0  0
 28 96  1  0  0  0  0
 29 30  1  0  0  0  0
 29 97  1  0  0  0  0
 29 98  1  0  0  0  0
 30 99  1  0  0  0  0
 30100  1  0  0  0  0
 30101  1  0  0  0  0
 31 32  1  0  0  0  0
 32 33  1  0  0  0  0
 32102  1  0  0  0  0
 32103  1  0  0  0  0
 33 34  1  0  0  0  0
 33104  1  0  0  0  0
 33105  1  0  0  0  0
 34 35  1  0  0  0  0
 34106  1  0  0  0  0
 34107  1  0  0  0  0
 35 36  1  0  0  0  0
 35108  1  0  0  0  0
 35109  1  0  0  0  0
 36 37  1  0  0  0  0
 36110  1  0  0  0  0
 36111  1  0  0  0  0
 37 38  1  0  0  0  0
 37112  1  0  0  0  0
 37113  1  0  0  0  0
 38 39  1  0  0  0  0
 38114  1  0  0  0  0
 38115  1  0  0  0  0
 39 40  1  0  0  0  0
 39116  1  0  0  0  0
 39117  1  0  0  0  0
 40 41  1  0  0  0  0
 40118  1  0  0  0  0
 40119  1  0  0  0  0
 41 42  1  0  0  0  0
 41120  1  0  0  0  0
 41121  1  0  0  0  0
 42 43  1  0  0  0  0
 42122  1  0  0  0  0
 42123  1  0  0  0  0
 43 44  1  0  0  0  0
 43124  1  0  0  0  0
 43125  1  0  0  0  0
 44 45  1  0  0  0  0
 44126  1  0  0  0  0
 44127  1  0  0  0  0
 45 46  2  0  0  0  0
 45128  1  0  0  0  0
 46 47  1  0  0  0  0
 46129  1  0  0  0  0
 47 48  1  0  0  0  0
 47130  1  0  0  0  0
 47131  1  0  0  0  0
 48 49  1  0  0  0  0
 48132  1  0  0  0  0
 48133  1  0  0  0  0
 49 50  1  0  0  0  0
 49134  1  0  0  0  0
 49135  1  0  0  0  0
 50 51  1  0  0  0  0
 50136  1  0  0  0  0
 50137  1  0  0  0  0
 51 52  1  0  0  0  0
 51138  1  0  0  0  0
 51139  1  0  0  0  0
 52 53  1  0  0  0  0
 52140  1  0  0  0  0
 52141  1  0  0  0  0
 53 54  1  0  0  0  0
 53142  1  0  0  0  0
 53143  1  0  0  0  0
 54144  1  0  0  0  0
 54145  1  0  0  0  0
 54146  1  0  0  0  0
 55 56  1  0  0  0  0
 55147  1  1  0  0  0
 56 57  1  0  0  0  0
 56148  1  6  0  0  0
 57 58  1  0  0  0  0
 57149  1  1  0  0  0
 58 59  1  0  0  0  0
 58150  1  1  0  0  0
 59 60  1  0  0  0  0
 59151  1  1  0  0  0
 60152  1  0  0  0  0
 60153  1  0  0  0  0
M  CHG  1  21  -1
M  END
$$$$