/media/chris/experiments/cd1a-new-docking/inputs/ligands/7ryn_ligand.pdb
 OpenBabel07032312553D

153153  0  0  1  0  0  0  0  0999 V2000
  -33.0340   65.1330   62.2120 N   0  0  0  0  0  0  0  0  0  0  0  0
  -32.0220   67.3480   62.3220 C   0  0  0  0  0  0  0  0  0  0  0  0
  -31.4051   67.0024   63.5673 O   0  0  0  0  0  0  0  0  0  0  0  0
  -32.1830   66.0840   61.5030 C   0  0  1  0  0  0  0  0  0  0  0  0
  -31.0548   64.2805   60.3587 O   0  0  0  0  0  0  0  0  0  0  0  0
  -30.8310   65.4230   61.1900 C   0  0  2  0  0  0  0  0  0  0  0  0
  -31.4954   63.4950   62.3441 O   0  0  0  0  0  0  0  0  0  0  0  0
  -30.1054   65.0399   62.4433 C   0  0  0  0  0  0  0  0  0  0  0  0
  -31.4046   66.6220   66.3415 O   0  0  0  0  0  0  0  0  0  0  0  0
  -28.9184   64.4680   62.4873 C   0  0  0  0  0  0  0  0  0  0  0  0
  -29.4155   68.1261   67.6954 O   0  0  0  0  0  0  0  0  0  0  0  0
  -28.2138   64.1114   63.7550 C   0  0  0  0  0  0  0  0  0  0  0  0
  -28.1411   69.3260   65.5933 O   0  0  0  0  0  0  0  0  0  0  0  0
  -29.0503   64.4971   64.9767 C   0  0  0  0  0  0  0  0  0  0  0  0
  -30.3909   69.0606   63.8198 O   0  0  0  0  0  0  0  0  0  0  0  0
  -28.3904   64.1801   66.3089 C   0  0  0  0  0  0  0  0  0  0  0  0
  -28.1534   70.6686   63.3778 O   0  0  0  0  0  0  0  0  0  0  0  0
  -27.0679   64.8924   66.5361 C   0  0  0  0  0  0  0  0  0  0  0  0
  -29.0352   66.5764   69.5011 O   0  0  0  0  0  0  0  0  0  0  0  0
  -26.4049   64.5573   67.8642 C   0  0  0  0  0  0  0  0  0  0  0  0
  -30.6879   66.0419   67.6849 O   0  5  0  0  0  0  0  0  0  0  0  0
  -26.0681   63.0828   68.0239 C   0  0  0  0  0  0  0  0  0  0  0  0
  -31.1144   67.7162   69.3133 O   0  0  0  0  0  0  0  0  0  0  0  0
  -27.2753   62.1660   67.9321 C   0  0  0  0  0  0  0  0  0  0  0  0
  -26.9488   60.6946   68.1074 C   0  0  0  0  0  0  0  0  0  0  0  0
  -25.9632   60.1567   67.0843 C   0  0  0  0  0  0  0  0  0  0  0  0
  -26.4524   60.3023   65.6553 C   0  0  0  0  0  0  0  0  0  0  0  0
  -27.7620   59.5938   65.3665 C   0  0  0  0  0  0  0  0  0  0  0  0
  -28.2039   59.7512   63.9248 C   0  0  0  0  0  0  0  0  0  0  0  0
  -29.5204   59.0574   63.6423 C   0  0  0  0  0  0  0  0  0  0  0  0
  -32.6252   63.9148   62.5768 C   0  0  0  0  0  0  0  0  0  0  0  0
  -33.6441   63.0766   63.3080 C   0  0  0  0  0  0  0  0  0  0  0  0
  -33.4627   61.5850   63.0573 C   0  0  0  0  0  0  0  0  0  0  0  0
  -33.5729   61.2200   61.5856 C   0  0  0  0  0  0  0  0  0  0  0  0
  -34.9065   61.5890   60.9574 C   0  0  0  0  0  0  0  0  0  0  0  0
  -35.0214   61.2077   59.4891 C   0  0  0  0  0  0  0  0  0  0  0  0
  -34.8862   59.7137   59.2243 C   0  0  0  0  0  0  0  0  0  0  0  0
  -34.9847   59.3367   57.7517 C   0  0  0  0  0  0  0  0  0  0  0  0
  -36.2970   59.7361   57.0818 C   0  0  0  0  0  0  0  0  0  0  0  0
  -36.5674   61.2398   57.0905 C   0  0  0  0  0  0  0  0  0  0  0  0
  -37.8863   61.6538   56.4381 C   0  0  0  0  0  0  0  0  0  0  0  0
  -38.1218   63.1643   56.4462 C   0  0  0  0  0  0  0  0  0  0  0  0
  -37.0724   63.9871   55.6989 C   0  0  0  0  0  0  0  0  0  0  0  0
  -37.3021   65.5006   55.7233 C   0  0  0  0  0  0  0  0  0  0  0  0
  -36.2552   66.2617   54.9625 C   0  0  0  0  0  0  0  0  0  0  0  0
  -36.3052   66.5868   53.6828 C   0  0  0  0  0  0  0  0  0  0  0  0
  -37.4191   66.2634   52.7337 C   0  0  0  0  0  0  0  0  0  0  0  0
  -36.9822   65.4096   51.5414 C   0  0  0  0  0  0  0  0  0  0  0  0
  -38.1171   65.1006   50.5740 C   0  0  0  0  0  0  0  0  0  0  0  0
  -38.7394   66.3465   49.9539 C   0  0  0  0  0  0  0  0  0  0  0  0
  -39.8899   66.0664   48.9938 C   0  0  0  0  0  0  0  0  0  0  0  0
  -40.4879   67.3202   48.3713 C   0  0  0  0  0  0  0  0  0  0  0  0
  -41.0446   68.3114   49.3809 C   0  0  0  0  0  0  0  0  0  0  0  0
  -42.1408   67.7205   50.2442 C   0  0  0  0  0  0  0  0  0  0  0  0
  -31.2104   68.0828   64.4327 C   0  0  2  0  0  0  0  0  0  0  0  0
  -30.5480   67.5584   65.7001 C   0  0  1  0  0  0  0  0  0  0  0  0
  -30.2364   68.7171   66.6389 C   0  0  2  0  0  0  0  0  0  0  0  0
  -29.4420   69.8007   65.9249 C   0  0  2  0  0  0  0  0  0  0  0  0
  -30.1703   70.2134   64.6482 C   0  0  1  0  0  0  0  0  0  0  0  0
  -29.3950   71.2080   63.8163 C   0  0  0  0  0  0  0  0  0  0  0  0
  -30.0256   66.9384   68.5560 S   0  0  0  0  0  0  0  0  0  0  0  0
  -33.9548   65.4029   62.4321 H   0  0  0  0  0  0  0  0  0  0  0  0
  -31.4053   68.0450   61.7940 H   0  0  0  0  0  0  0  0  0  0  0  0
  -32.9770   67.7979   62.4965 H   0  0  0  0  0  0  0  0  0  0  0  0
  -32.6374   66.3625   60.5752 H   0  0  0  0  0  0  0  0  0  0  0  0
  -31.5249   64.5525   59.5551 H   0  0  0  0  0  0  0  0  0  0  0  0
  -30.2105   66.1253   60.6735 H   0  0  0  0  0  0  0  0  0  0  0  0
  -30.5711   65.2392   63.3425 H   0  0  0  0  0  0  0  0  0  0  0  0
  -31.5955   65.8899   65.7345 H   0  0  0  0  0  0  0  0  0  0  0  0
  -28.4487   64.2543   61.5936 H   0  0  0  0  0  0  0  0  0  0  0  0
  -27.2790   64.6306   63.7933 H   0  0  0  0  0  0  0  0  0  0  0  0
  -28.0568   63.0531   63.7707 H   0  0  0  0  0  0  0  0  0  0  0  0
  -27.6765   69.0633   66.4032 H   0  0  0  0  0  0  0  0  0  0  0  0
  -29.9791   63.9682   64.9280 H   0  0  0  0  0  0  0  0  0  0  0  0
  -29.1756   65.5592   64.9407 H   0  0  0  0  0  0  0  0  0  0  0  0
  -28.2151   63.1255   66.3536 H   0  0  0  0  0  0  0  0  0  0  0  0
  -29.0583   64.5231   67.0712 H   0  0  0  0  0  0  0  0  0  0  0  0
  -27.6822   71.3306   62.8482 H   0  0  0  0  0  0  0  0  0  0  0  0
  -27.2442   65.9473   66.5047 H   0  0  0  0  0  0  0  0  0  0  0  0
  -26.4024   64.5629   65.7659 H   0  0  0  0  0  0  0  0  0  0  0  0
  -28.3292   66.0818   69.0563 H   0  0  0  0  0  0  0  0  0  0  0  0
  -27.0690   64.8398   68.6542 H   0  0  0  0  0  0  0  0  0  0  0  0
  -25.4802   65.0948   67.8968 H   0  0  0  0  0  0  0  0  0  0  0  0
  -25.6100   62.9429   68.9807 H   0  0  0  0  0  0  0  0  0  0  0  0
  -25.4162   62.8223   67.2163 H   0  0  0  0  0  0  0  0  0  0  0  0
  -30.6977   68.3443   69.9238 H   0  0  0  0  0  0  0  0  0  0  0  0
  -27.7256   62.2983   66.9706 H   0  0  0  0  0  0  0  0  0  0  0  0
  -27.9296   62.4353   68.7347 H   0  0  0  0  0  0  0  0  0  0  0  0
  -27.8577   60.1358   68.0259 H   0  0  0  0  0  0  0  0  0  0  0  0
  -26.4876   60.5910   69.0674 H   0  0  0  0  0  0  0  0  0  0  0  0
  -25.7974   59.1186   67.2837 H   0  0  0  0  0  0  0  0  0  0  0  0
  -25.0641   60.7297   67.1744 H   0  0  0  0  0  0  0  0  0  0  0  0
  -25.7045   59.9022   65.0031 H   0  0  0  0  0  0  0  0  0  0  0  0
  -26.6284   61.3458   65.4975 H   0  0  0  0  0  0  0  0  0  0  0  0
  -28.5195   60.0003   66.0036 H   0  0  0  0  0  0  0  0  0  0  0  0
  -27.6127   58.5498   65.5478 H   0  0  0  0  0  0  0  0  0  0  0  0
  -27.4523   59.3335   63.2880 H   0  0  0  0  0  0  0  0  0  0  0  0
  -28.3407   60.7961   63.7391 H   0  0  0  0  0  0  0  0  0  0  0  0
  -29.4154   58.0074   63.8195 H   0  0  0  0  0  0  0  0  0  0  0  0
  -29.7980   59.2209   62.6219 H   0  0  0  0  0  0  0  0  0  0  0  0
  -30.2778   59.4538   64.2858 H   0  0  0  0  0  0  0  0  0  0  0  0
  -34.6219   63.3629   62.9810 H   0  0  0  0  0  0  0  0  0  0  0  0
  -33.5131   63.2478   64.3561 H   0  0  0  0  0  0  0  0  0  0  0  0
  -34.2162   61.0527   63.5994 H   0  0  0  0  0  0  0  0  0  0  0  0
  -32.4788   61.3197   63.3834 H   0  0  0  0  0  0  0  0  0  0  0  0
  -33.4363   60.1631   61.4896 H   0  0  0  0  0  0  0  0  0  0  0  0
  -32.8212   61.7800   61.0698 H   0  0  0  0  0  0  0  0  0  0  0  0
  -35.0376   62.6476   61.0421 H   0  0  0  0  0  0  0  0  0  0  0  0
  -35.6600   61.0391   61.4815 H   0  0  0  0  0  0  0  0  0  0  0  0
  -34.2510   61.7164   58.9482 H   0  0  0  0  0  0  0  0  0  0  0  0
  -36.0034   61.4906   59.1719 H   0  0  0  0  0  0  0  0  0  0  0  0
  -35.6641   59.2056   59.7550 H   0  0  0  0  0  0  0  0  0  0  0  0
  -33.9094   59.4269   59.5538 H   0  0  0  0  0  0  0  0  0  0  0  0
  -34.8778   58.2752   57.6707 H   0  0  0  0  0  0  0  0  0  0  0  0
  -34.2097   59.8753   57.2475 H   0  0  0  0  0  0  0  0  0  0  0  0
  -37.0988   59.2472   57.5946 H   0  0  0  0  0  0  0  0  0  0  0  0
  -36.2229   59.4411   56.0560 H   0  0  0  0  0  0  0  0  0  0  0  0
  -35.7699   61.7252   56.5678 H   0  0  0  0  0  0  0  0  0  0  0  0
  -36.6338   61.5297   58.1183 H   0  0  0  0  0  0  0  0  0  0  0  0
  -38.6884   61.1829   56.9670 H   0  0  0  0  0  0  0  0  0  0  0  0
  -37.8410   61.3474   55.4139 H   0  0  0  0  0  0  0  0  0  0  0  0
  -38.1369   63.4923   57.4646 H   0  0  0  0  0  0  0  0  0  0  0  0
  -39.0473   63.3249   55.9338 H   0  0  0  0  0  0  0  0  0  0  0  0
  -37.0658   63.6684   54.6775 H   0  0  0  0  0  0  0  0  0  0  0  0
  -36.1436   63.8165   56.2021 H   0  0  0  0  0  0  0  0  0  0  0  0
  -37.2927   65.8312   56.7409 H   0  0  0  0  0  0  0  0  0  0  0  0
  -38.2438   65.6905   55.2521 H   0  0  0  0  0  0  0  0  0  0  0  0
  -35.4183   66.5588   55.4881 H   0  0  0  0  0  0  0  0  0  0  0  0
  -35.5029   67.1121   53.3014 H   0  0  0  0  0  0  0  0  0  0  0  0
  -37.8234   67.1816   52.3617 H   0  0  0  0  0  0  0  0  0  0  0  0
  -38.1400   65.6920   53.2803 H   0  0  0  0  0  0  0  0  0  0  0  0
  -36.5899   64.4853   51.9111 H   0  0  0  0  0  0  0  0  0  0  0  0
  -36.2491   65.9712   51.0010 H   0  0  0  0  0  0  0  0  0  0  0  0
  -38.8792   64.5685   51.1040 H   0  0  0  0  0  0  0  0  0  0  0  0
  -37.7024   64.5230   49.7744 H   0  0  0  0  0  0  0  0  0  0  0  0
  -37.9760   66.8699   49.4172 H   0  0  0  0  0  0  0  0  0  0  0  0
  -39.1485   66.9169   50.7615 H   0  0  0  0  0  0  0  0  0  0  0  0
  -40.6613   65.5554   49.5312 H   0  0  0  0  0  0  0  0  0  0  0  0
  -39.4921   65.4793   48.1926 H   0  0  0  0  0  0  0  0  0  0  0  0
  -41.2820   67.0247   47.7179 H   0  0  0  0  0  0  0  0  0  0  0  0
  -39.6924   67.8182   47.8574 H   0  0  0  0  0  0  0  0  0  0  0  0
  -41.4428   69.1514   48.8510 H   0  0  0  0  0  0  0  0  0  0  0  0
  -40.2421   68.5941   50.0297 H   0  0  0  0  0  0  0  0  0  0  0  0
  -42.9623   67.4257   49.6253 H   0  0  0  0  0  0  0  0  0  0  0  0
  -42.4715   68.4523   50.9513 H   0  0  0  0  0  0  0  0  0  0  0  0
  -41.7625   66.8661   50.7656 H   0  0  0  0  0  0  0  0  0  0  0  0
  -32.1486   68.5400   64.6687 H   0  0  0  0  0  0  0  0  0  0  0  0
  -29.6327   67.0681   65.4416 H   0  0  0  0  0  0  0  0  0  0  0  0
  -31.1294   69.1768   67.0080 H   0  0  0  0  0  0  0  0  0  0  0  0
  -29.3488   70.6437   66.5772 H   0  0  0  0  0  0  0  0  0  0  0  0
  -31.0858   70.6667   64.9665 H   0  0  0  0  0  0  0  0  0  0  0  0
  -29.9792   71.4753   62.9606 H   0  0  0  0  0  0  0  0  0  0  0  0
  -29.1918   72.0657   64.4231 H   0  0  0  0  0  0  0  0  0  0  0  0
  1  4  1  0  0  0  0
  1 31  1  0  0  0  0
  1 62  1  0  0  0  0
  2  3  1  0  0  0  0
  2  4  1  0  0  0  0
  2 63  1  0  0  0  0
  2 64  1  0  0  0  0
  3 55  1  0  0  0  0
  4  6  1  0  0  0  0
  4 65  1  6  0  0  0
  5  6  1  0  0  0  0
  5 66  1  0  0  0  0
  6  8  1  0  0  0  0
  6 67  1  6  0  0  0
  7 31  2  0  0  0  0
  8 10  2  0  0  0  0
  8 68  1  0  0  0  0
  9 56  1  0  0  0  0
  9 69  1  0  0  0  0
 10 12  1  0  0  0  0
 10 70  1  0  0  0  0
 11 57  1  0  0  0  0
 11 61  1  0  0  0  0
 12 14  1  0  0  0  0
 12 71  1  0  0  0  0
 12 72  1  0  0  0  0
 13 58  1  0  0  0  0
 13 73  1  0  0  0  0
 14 16  1  0  0  0  0
 14 74  1  0  0  0  0
 14 75  1  0  0  0  0
 15 55  1  0  0  0  0
 15 59  1  0  0  0  0
 16 18  1  0  0  0  0
 16 76  1  0  0  0  0
 16 77  1  0  0  0  0
 17 60  1  0  0  0  0
 17 78  1  0  0  0  0
 18 20  1  0  0  0  0
 18 79  1  0  0  0  0
 18 80  1  0  0  0  0
 19 61  1  0  0  0  0
 19 81  1  0  0  0  0
 20 22  1  0  0  0  0
 20 82  1  0  0  0  0
 20 83  1  0  0  0  0
 21 61  1  0  0  0  0
 22 24  1  0  0  0  0
 22 84  1  0  0  0  0
 22 85  1  0  0  0  0
 23 61  1  0  0  0  0
 23 86  1  0  0  0  0
 24 25  1  0  0  0  0
 24 87  1  0  0  0  0
 24 88  1  0  0  0  0
 25 26  1  0  0  0  0
 25 89  1  0  0  0  0
 25 90  1  0  0  0  0
 26 27  1  0  0  0  0
 26 91  1  0  0  0  0
 26 92  1  0  0  0  0
 27 28  1  0  0  0  0
 27 93  1  0  0  0  0
 27 94  1  0  0  0  0
 28 29  1  0  0  0  0
 28 95  1  0  0  0  0
 28 96  1  0  0  0  0
 29 30  1  0  0  0  0
 29 97  1  0  0  0  0
 29 98  1  0  0  0  0
 30 99  1  0  0  0  0
 30100  1  0  0  0  0
 30101  1  0  0  0  0
 31 32  1  0  0  0  0
 32 33  1  0  0  0  0
 32102  1  0  0  0  0
 32103  1  0  0  0  0
 33 34  1  0  0  0  0
 33104  1  0  0  0  0
 33105  1  0  0  0  0
 34 35  1  0  0  0  0
 34106  1  0  0  0  0
 34107  1  0  0  0  0
 35 36  1  0  0  0  0
 35108  1  0  0  0  0
 35109  1  0  0  0  0
 36 37  1  0  0  0  0
 36110  1  0  0  0  0
 36111  1  0  0  0  0
 37 38  1  0  0  0  0
 37112  1  0  0  0  0
 37113  1  0  0  0  0
 38 39  1  0  0  0  0
 38114  1  0  0  0  0
 38115  1  0  0  0  0
 39 40  1  0  0  0  0
 39116  1  0  0  0  0
 39117  1  0  0  0  0
 40 41  1  0  0  0  0
 40118  1  0  0  0  0
 40119  1  0  0  0  0
 41 42  1  0  0  0  0
 41120  1  0  0  0  0
 41121  1  0  0  0  0
 42 43  1  0  0  0  0
 42122  1  0  0  0  0
 42123  1  0  0  0  0
 43 44  1  0  0  0  0
 43124  1  0  0  0  0
 43125  1  0  0  0  0
 44 45  1  0  0  0  0
 44126  1  0  0  0  0
 44127  1  0  0  0  0
 45 46  2  0  0  0  0
 45128  1  0  0  0  0
 46 47  1  0  0  0  0
 46129  1  0  0  0  0
 47 48  1  0  0  0  0
 47130  1  0  0  0  0
 47131  1  0  0  0  0
 48 49  1  0  0  0  0
 48132  1  0  0  0  0
 48133  1  0  0  0  0
 49 50  1  0  0  0  0
 49134  1  0  0  0  0
 49135  1  0  0  0  0
 50 51  1  0  0  0  0
 50136  1  0  0  0  0
 50137  1  0  0  0  0
 51 52  1  0  0  0  0
 51138  1  0  0  0  0
 51139  1  0  0  0  0
 52 53  1  0  0  0  0
 52140  1  0  0  0  0
 52141  1  0  0  0  0
 53 54  1  0  0  0  0
 53142  1  0  0  0  0
 53143  1  0  0  0  0
 54144  1  0  0  0  0
 54145  1  0  0  0  0
 54146  1  0  0  0  0
 55 56  1  0  0  0  0
 55147  1  1  0  0  0
 56 57  1  0  0  0  0
 56148  1  6  0  0  0
 57 58  1  0  0  0  0
 57149  1  1  0  0  0
 58 59  1  0  0  0  0
 58150  1  1  0  0  0
 59 60  1  0  0  0  0
 59151  1  1  0  0  0
 60152  1  0  0  0  0
 60153  1  0  0  0  0
M  CHG  1  21  -1
M  END
$$$$