/media/chris/experiments/cd1a-new-docking/inputs/ligands/7ryn_ligand.pdb
 OpenBabel07032312553D

153153  0  0  1  0  0  0  0  0999 V2000
  -33.0340   65.1330   62.2120 N   0  0  0  0  0  0  0  0  0  0  0  0
  -32.0220   67.3480   62.3220 C   0  0  0  0  0  0  0  0  0  0  0  0
  -33.3204   67.9104   62.5424 O   0  0  0  0  0  0  0  0  0  0  0  0
  -32.1830   66.0840   61.5030 C   0  0  1  0  0  0  0  0  0  0  0  0
  -29.9992   66.3678   60.5104 O   0  0  0  0  0  0  0  0  0  0  0  0
  -30.8310   65.4230   61.1900 C   0  0  2  0  0  0  0  0  0  0  0  0
  -31.3638   64.0971   63.3098 O   0  0  0  0  0  0  0  0  0  0  0  0
  -31.0055   64.1786   60.3744 C   0  0  0  0  0  0  0  0  0  0  0  0
  -33.0367   70.4384   61.3722 O   0  0  0  0  0  0  0  0  0  0  0  0
  -30.6246   62.9714   60.7426 C   0  0  0  0  0  0  0  0  0  0  0  0
  -32.8814   70.3696   58.5396 O   0  0  0  0  0  0  0  0  0  0  0  0
  -30.8265   61.7465   59.9122 C   0  0  0  0  0  0  0  0  0  0  0  0
  -32.9557   67.6751   58.0737 O   0  0  0  0  0  0  0  0  0  0  0  0
  -29.4892   61.0836   59.5755 C   0  0  0  0  0  0  0  0  0  0  0  0
  -34.2192   67.0740   60.5876 O   0  0  0  0  0  0  0  0  0  0  0  0
  -29.6114   59.8360   58.7157 C   0  0  0  0  0  0  0  0  0  0  0  0
  -35.9633   65.1340   59.5583 O   0  0  0  0  0  0  0  0  0  0  0  0
  -30.2499   60.0732   57.3578 C   0  0  0  0  0  0  0  0  0  0  0  0
  -32.1393   71.6178   56.6165 O   0  0  0  0  0  0  0  0  0  0  0  0
  -31.6598   60.6414   57.4278 C   0  0  0  0  0  0  0  0  0  0  0  0
  -34.5899   71.3907   57.1248 O   0  5  0  0  0  0  0  0  0  0  0  0
  -32.2986   60.8602   56.0650 C   0  0  0  0  0  0  0  0  0  0  0  0
  -33.2989   69.5597   56.3392 O   0  0  0  0  0  0  0  0  0  0  0  0
  -33.6993   61.4431   56.1323 C   0  0  0  0  0  0  0  0  0  0  0  0
  -33.7711   62.8042   56.7990 C   0  0  0  0  0  0  0  0  0  0  0  0
  -32.9572   63.8774   56.0964 C   0  0  0  0  0  0  0  0  0  0  0  0
  -33.4079   64.1245   54.6687 C   0  0  0  0  0  0  0  0  0  0  0  0
  -33.3330   62.9062   53.7686 C   0  0  0  0  0  0  0  0  0  0  0  0
  -33.7759   63.2025   52.3492 C   0  0  0  0  0  0  0  0  0  0  0  0
  -33.7167   61.9807   51.4558 C   0  0  0  0  0  0  0  0  0  0  0  0
  -32.5596   64.2152   63.0586 C   0  0  0  0  0  0  0  0  0  0  0  0
  -33.5934   63.3253   63.7025 C   0  0  0  0  0  0  0  0  0  0  0  0
  -34.8154   63.1137   62.8180 C   0  0  0  0  0  0  0  0  0  0  0  0
  -34.4732   62.4502   61.4937 C   0  0  0  0  0  0  0  0  0  0  0  0
  -33.8532   61.0703   61.6379 C   0  0  0  0  0  0  0  0  0  0  0  0
  -34.7518   60.0623   62.3387 C   0  0  0  0  0  0  0  0  0  0  0  0
  -35.1555   60.4682   63.7505 C   0  0  0  0  0  0  0  0  0  0  0  0
  -36.0412   59.4492   64.4559 C   0  0  0  0  0  0  0  0  0  0  0  0
  -36.4684   59.8493   65.8658 C   0  0  0  0  0  0  0  0  0  0  0  0
  -35.3031   60.0841   66.8257 C   0  0  0  0  0  0  0  0  0  0  0  0
  -34.3884   58.8759   67.0250 C   0  0  0  0  0  0  0  0  0  0  0  0
  -33.2421   59.1347   68.0030 C   0  0  0  0  0  0  0  0  0  0  0  0
  -33.6732   59.5026   69.4226 C   0  0  0  0  0  0  0  0  0  0  0  0
  -34.5025   58.4355   70.1419 C   0  0  0  0  0  0  0  0  0  0  0  0
  -35.7740   58.0988   69.4178 C   0  0  0  0  0  0  0  0  0  0  0  0
  -36.6859   57.2270   69.8104 C   0  0  0  0  0  0  0  0  0  0  0  0
  -36.6358   56.4007   71.0598 C   0  0  0  0  0  0  0  0  0  0  0  0
  -36.6508   54.8927   70.8002 C   0  0  0  0  0  0  0  0  0  0  0  0
  -37.8875   54.4239   70.0452 C   0  0  0  0  0  0  0  0  0  0  0  0
  -38.0310   55.0582   68.6663 C   0  0  0  0  0  0  0  0  0  0  0  0
  -36.8784   54.7638   67.7130 C   0  0  0  0  0  0  0  0  0  0  0  0
  -37.0301   55.4186   66.3472 C   0  0  0  0  0  0  0  0  0  0  0  0
  -35.8937   55.1173   65.3830 C   0  0  0  0  0  0  0  0  0  0  0  0
  -34.5437   55.5663   65.9044 C   0  0  0  0  0  0  0  0  0  0  0  0
  -34.0138   68.2339   61.3725 C   0  0  2  0  0  0  0  0  0  0  0  0
  -33.1864   69.2534   60.6005 C   0  0  1  0  0  0  0  0  0  0  0  0
  -33.8630   69.5708   59.2729 C   0  0  2  0  0  0  0  0  0  0  0  0
  -34.1647   68.2982   58.4952 C   0  0  2  0  0  0  0  0  0  0  0  0
  -34.9504   67.3319   59.3783 C   0  0  1  0  0  0  0  0  0  0  0  0
  -35.1970   65.9935   58.7222 C   0  0  0  0  0  0  0  0  0  0  0  0
  -33.2636   70.9000   57.0917 S   0  0  0  0  0  0  0  0  0  0  0  0
  -34.0058   65.1700   62.0585 H   0  0  0  0  0  0  0  0  0  0  0  0
  -31.5648   67.1148   63.2609 H   0  0  0  0  0  0  0  0  0  0  0  0
  -31.4012   68.0473   61.8019 H   0  0  0  0  0  0  0  0  0  0  0  0
  -32.6374   66.3625   60.5752 H   0  0  0  0  0  0  0  0  0  0  0  0
  -29.9008   67.1635   61.0564 H   0  0  0  0  0  0  0  0  0  0  0  0
  -30.3647   65.1308   62.1077 H   0  0  0  0  0  0  0  0  0  0  0  0
  -31.4592   64.2738   59.4524 H   0  0  0  0  0  0  0  0  0  0  0  0
  -32.6053   70.2237   62.2140 H   0  0  0  0  0  0  0  0  0  0  0  0
  -30.1599   62.8667   61.6581 H   0  0  0  0  0  0  0  0  0  0  0  0
  -31.3208   62.0182   59.0030 H   0  0  0  0  0  0  0  0  0  0  0  0
  -31.4197   61.0519   60.4694 H   0  0  0  0  0  0  0  0  0  0  0  0
  -32.4550   68.2876   57.5124 H   0  0  0  0  0  0  0  0  0  0  0  0
  -29.0083   60.8134   60.4924 H   0  0  0  0  0  0  0  0  0  0  0  0
  -28.9278   61.7951   59.0069 H   0  0  0  0  0  0  0  0  0  0  0  0
  -30.2056   59.1208   59.2451 H   0  0  0  0  0  0  0  0  0  0  0  0
  -28.6150   59.4927   58.5302 H   0  0  0  0  0  0  0  0  0  0  0  0
  -36.1031   64.2860   59.1086 H   0  0  0  0  0  0  0  0  0  0  0  0
  -30.2889   59.1396   56.8365 H   0  0  0  0  0  0  0  0  0  0  0  0
  -29.6474   60.8008   56.8552 H   0  0  0  0  0  0  0  0  0  0  0  0
  -32.0855   72.4727   57.0717 H   0  0  0  0  0  0  0  0  0  0  0  0
  -31.6204   61.5815   57.9374 H   0  0  0  0  0  0  0  0  0  0  0  0
  -32.2616   59.9227   57.9438 H   0  0  0  0  0  0  0  0  0  0  0  0
  -32.3490   59.9179   55.5607 H   0  0  0  0  0  0  0  0  0  0  0  0
  -31.6898   61.5702   55.5453 H   0  0  0  0  0  0  0  0  0  0  0  0
  -32.4032   69.1898   56.2954 H   0  0  0  0  0  0  0  0  0  0  0  0
  -34.3192   60.7662   56.6822 H   0  0  0  0  0  0  0  0  0  0  0  0
  -34.0277   61.5757   55.1226 H   0  0  0  0  0  0  0  0  0  0  0  0
  -33.4082   62.7081   57.8010 H   0  0  0  0  0  0  0  0  0  0  0  0
  -34.7941   63.1153   56.7607 H   0  0  0  0  0  0  0  0  0  0  0  0
  -31.9316   63.5727   56.0822 H   0  0  0  0  0  0  0  0  0  0  0  0
  -33.0958   64.7897   56.6380 H   0  0  0  0  0  0  0  0  0  0  0  0
  -32.7877   64.8890   54.2495 H   0  0  0  0  0  0  0  0  0  0  0  0
  -34.4394   64.4049   54.7182 H   0  0  0  0  0  0  0  0  0  0  0  0
  -33.9644   62.1424   54.1722 H   0  0  0  0  0  0  0  0  0  0  0  0
  -32.3105   62.5934   53.7306 H   0  0  0  0  0  0  0  0  0  0  0  0
  -33.1369   63.9573   51.9409 H   0  0  0  0  0  0  0  0  0  0  0  0
  -34.7945   63.5278   52.3878 H   0  0  0  0  0  0  0  0  0  0  0  0
  -32.7074   61.6304   51.3969 H   0  0  0  0  0  0  0  0  0  0  0  0
  -34.0627   62.2378   50.4765 H   0  0  0  0  0  0  0  0  0  0  0  0
  -34.3383   61.2107   51.8629 H   0  0  0  0  0  0  0  0  0  0  0  0
  -33.9085   63.7748   64.6209 H   0  0  0  0  0  0  0  0  0  0  0  0
  -33.1418   62.3692   63.8662 H   0  0  0  0  0  0  0  0  0  0  0  0
  -35.2627   64.0651   62.6188 H   0  0  0  0  0  0  0  0  0  0  0  0
  -35.4849   62.4637   63.3417 H   0  0  0  0  0  0  0  0  0  0  0  0
  -33.7811   63.0775   60.9716 H   0  0  0  0  0  0  0  0  0  0  0  0
  -35.3936   62.3231   60.9631 H   0  0  0  0  0  0  0  0  0  0  0  0
  -32.9485   61.1644   62.2015 H   0  0  0  0  0  0  0  0  0  0  0  0
  -33.6835   60.7005   60.6483 H   0  0  0  0  0  0  0  0  0  0  0  0
  -34.2319   59.1287   62.3928 H   0  0  0  0  0  0  0  0  0  0  0  0
  -35.6529   59.9997   61.7651 H   0  0  0  0  0  0  0  0  0  0  0  0
  -35.6865   61.3955   63.6956 H   0  0  0  0  0  0  0  0  0  0  0  0
  -34.2539   60.5444   64.3216 H   0  0  0  0  0  0  0  0  0  0  0  0
  -35.5036   58.5262   64.5189 H   0  0  0  0  0  0  0  0  0  0  0  0
  -36.9376   59.3730   63.8767 H   0  0  0  0  0  0  0  0  0  0  0  0
  -37.0815   59.0689   66.2656 H   0  0  0  0  0  0  0  0  0  0  0  0
  -36.9897   60.7797   65.7787 H   0  0  0  0  0  0  0  0  0  0  0  0
  -35.7058   60.3584   67.7784 H   0  0  0  0  0  0  0  0  0  0  0  0
  -34.6999   60.8518   66.3878 H   0  0  0  0  0  0  0  0  0  0  0  0
  -33.9709   58.6070   66.0772 H   0  0  0  0  0  0  0  0  0  0  0  0
  -34.9869   58.0927   67.4412 H   0  0  0  0  0  0  0  0  0  0  0  0
  -32.6517   59.9391   67.6166 H   0  0  0  0  0  0  0  0  0  0  0  0
  -32.7047   58.2130   68.0836 H   0  0  0  0  0  0  0  0  0  0  0  0
  -34.2566   60.3981   69.3712 H   0  0  0  0  0  0  0  0  0  0  0  0
  -32.7728   59.6154   69.9897 H   0  0  0  0  0  0  0  0  0  0  0  0
  -34.7507   58.7963   71.1182 H   0  0  0  0  0  0  0  0  0  0  0  0
  -33.9117   57.5444   70.1855 H   0  0  0  0  0  0  0  0  0  0  0  0
  -35.9523   58.5946   68.5305 H   0  0  0  0  0  0  0  0  0  0  0  0
  -37.5090   57.1037   69.2003 H   0  0  0  0  0  0  0  0  0  0  0  0
  -37.4842   56.6482   71.6629 H   0  0  0  0  0  0  0  0  0  0  0  0
  -35.7097   56.6252   71.5465 H   0  0  0  0  0  0  0  0  0  0  0  0
  -36.6151   54.3856   71.7418 H   0  0  0  0  0  0  0  0  0  0  0  0
  -35.8019   54.6678   70.1889 H   0  0  0  0  0  0  0  0  0  0  0  0
  -38.7526   54.6715   70.6242 H   0  0  0  0  0  0  0  0  0  0  0  0
  -37.7874   53.3687   69.8989 H   0  0  0  0  0  0  0  0  0  0  0  0
  -38.0988   56.1187   68.7915 H   0  0  0  0  0  0  0  0  0  0  0  0
  -38.9078   54.6325   68.2249 H   0  0  0  0  0  0  0  0  0  0  0  0
  -36.8169   53.7046   67.5746 H   0  0  0  0  0  0  0  0  0  0  0  0
  -35.9939   55.1700   68.1576 H   0  0  0  0  0  0  0  0  0  0  0  0
  -37.0800   56.4783   66.4867 H   0  0  0  0  0  0  0  0  0  0  0  0
  -37.9198   55.0162   65.9099 H   0  0  0  0  0  0  0  0  0  0  0  0
  -36.0875   55.6207   64.4589 H   0  0  0  0  0  0  0  0  0  0  0  0
  -35.8525   54.0556   65.2569 H   0  0  0  0  0  0  0  0  0  0  0  0
  -34.5496   56.6273   66.0426 H   0  0  0  0  0  0  0  0  0  0  0  0
  -33.7834   55.3027   65.1992 H   0  0  0  0  0  0  0  0  0  0  0  0
  -34.3449   55.0860   66.8396 H   0  0  0  0  0  0  0  0  0  0  0  0
  -34.9727   68.6430   61.6132 H   0  0  0  0  0  0  0  0  0  0  0  0
  -32.2173   68.8444   60.4048 H   0  0  0  0  0  0  0  0  0  0  0  0
  -34.7946   70.0773   59.4161 H   0  0  0  0  0  0  0  0  0  0  0  0
  -34.7440   68.5528   57.6324 H   0  0  0  0  0  0  0  0  0  0  0  0
  -35.8917   67.8050   59.5651 H   0  0  0  0  0  0  0  0  0  0  0  0
  -35.7263   66.1485   57.8053 H   0  0  0  0  0  0  0  0  0  0  0  0
  -34.2500   65.5290   58.5427 H   0  0  0  0  0  0  0  0  0  0  0  0
  1  4  1  0  0  0  0
  1 31  1  0  0  0  0
  1 62  1  0  0  0  0
  2  3  1  0  0  0  0
  2  4  1  0  0  0  0
  2 63  1  0  0  0  0
  2 64  1  0  0  0  0
  3 55  1  0  0  0  0
  4  6  1  0  0  0  0
  4 65  1  6  0  0  0
  5  6  1  0  0  0  0
  5 66  1  0  0  0  0
  6  8  1  0  0  0  0
  6 67  1  1  0  0  0
  7 31  2  0  0  0  0
  8 10  2  0  0  0  0
  8 68  1  0  0  0  0
  9 56  1  0  0  0  0
  9 69  1  0  0  0  0
 10 12  1  0  0  0  0
 10 70  1  0  0  0  0
 11 57  1  0  0  0  0
 11 61  1  0  0  0  0
 12 14  1  0  0  0  0
 12 71  1  0  0  0  0
 12 72  1  0  0  0  0
 13 58  1  0  0  0  0
 13 73  1  0  0  0  0
 14 16  1  0  0  0  0
 14 74  1  0  0  0  0
 14 75  1  0  0  0  0
 15 55  1  0  0  0  0
 15 59  1  0  0  0  0
 16 18  1  0  0  0  0
 16 76  1  0  0  0  0
 16 77  1  0  0  0  0
 17 60  1  0  0  0  0
 17 78  1  0  0  0  0
 18 20  1  0  0  0  0
 18 79  1  0  0  0  0
 18 80  1  0  0  0  0
 19 61  1  0  0  0  0
 19 81  1  0  0  0  0
 20 22  1  0  0  0  0
 20 82  1  0  0  0  0
 20 83  1  0  0  0  0
 21 61  1  0  0  0  0
 22 24  1  0  0  0  0
 22 84  1  0  0  0  0
 22 85  1  0  0  0  0
 23 61  1  0  0  0  0
 23 86  1  0  0  0  0
 24 25  1  0  0  0  0
 24 87  1  0  0  0  0
 24 88  1  0  0  0  0
 25 26  1  0  0  0  0
 25 89  1  0  0  0  0
 25 90  1  0  0  0  0
 26 27  1  0  0  0  0
 26 91  1  0  0  0  0
 26 92  1  0  0  0  0
 27 28  1  0  0  0  0
 27 93  1  0  0  0  0
 27 94  1  0  0  0  0
 28 29  1  0  0  0  0
 28 95  1  0  0  0  0
 28 96  1  0  0  0  0
 29 30  1  0  0  0  0
 29 97  1  0  0  0  0
 29 98  1  0  0  0  0
 30 99  1  0  0  0  0
 30100  1  0  0  0  0
 30101  1  0  0  0  0
 31 32  1  0  0  0  0
 32 33  1  0  0  0  0
 32102  1  0  0  0  0
 32103  1  0  0  0  0
 33 34  1  0  0  0  0
 33104  1  0  0  0  0
 33105  1  0  0  0  0
 34 35  1  0  0  0  0
 34106  1  0  0  0  0
 34107  1  0  0  0  0
 35 36  1  0  0  0  0
 35108  1  0  0  0  0
 35109  1  0  0  0  0
 36 37  1  0  0  0  0
 36110  1  0  0  0  0
 36111  1  0  0  0  0
 37 38  1  0  0  0  0
 37112  1  0  0  0  0
 37113  1  0  0  0  0
 38 39  1  0  0  0  0
 38114  1  0  0  0  0
 38115  1  0  0  0  0
 39 40  1  0  0  0  0
 39116  1  0  0  0  0
 39117  1  0  0  0  0
 40 41  1  0  0  0  0
 40118  1  0  0  0  0
 40119  1  0  0  0  0
 41 42  1  0  0  0  0
 41120  1  0  0  0  0
 41121  1  0  0  0  0
 42 43  1  0  0  0  0
 42122  1  0  0  0  0
 42123  1  0  0  0  0
 43 44  1  0  0  0  0
 43124  1  0  0  0  0
 43125  1  0  0  0  0
 44 45  1  0  0  0  0
 44126  1  0  0  0  0
 44127  1  0  0  0  0
 45 46  2  0  0  0  0
 45128  1  0  0  0  0
 46 47  1  0  0  0  0
 46129  1  0  0  0  0
 47 48  1  0  0  0  0
 47130  1  0  0  0  0
 47131  1  0  0  0  0
 48 49  1  0  0  0  0
 48132  1  0  0  0  0
 48133  1  0  0  0  0
 49 50  1  0  0  0  0
 49134  1  0  0  0  0
 49135  1  0  0  0  0
 50 51  1  0  0  0  0
 50136  1  0  0  0  0
 50137  1  0  0  0  0
 51 52  1  0  0  0  0
 51138  1  0  0  0  0
 51139  1  0  0  0  0
 52 53  1  0  0  0  0
 52140  1  0  0  0  0
 52141  1  0  0  0  0
 53 54  1  0  0  0  0
 53142  1  0  0  0  0
 53143  1  0  0  0  0
 54144  1  0  0  0  0
 54145  1  0  0  0  0
 54146  1  0  0  0  0
 55 56  1  0  0  0  0
 55147  1  1  0  0  0
 56 57  1  0  0  0  0
 56148  1  6  0  0  0
 57 58  1  0  0  0  0
 57149  1  1  0  0  0
 58 59  1  0  0  0  0
 58150  1  6  0  0  0
 59 60  1  0  0  0  0
 59151  1  1  0  0  0
 60152  1  0  0  0  0
 60153  1  0  0  0  0
M  CHG  1  21  -1
M  END
$$$$