/media/chris/experiments/cd1a-new-docking/inputs/ligands/7ryn_ligand.pdb
 OpenBabel07032312553D

153153  0  0  1  0  0  0  0  0999 V2000
  -33.0340   65.1330   62.2120 N   0  0  0  0  0  0  0  0  0  0  0  0
  -32.0220   67.3480   62.3220 C   0  0  0  0  0  0  0  0  0  0  0  0
  -33.3204   67.9104   62.5424 O   0  0  0  0  0  0  0  0  0  0  0  0
  -32.1830   66.0840   61.5030 C   0  0  1  0  0  0  0  0  0  0  0  0
  -29.9992   66.3678   60.5104 O   0  0  0  0  0  0  0  0  0  0  0  0
  -30.8310   65.4230   61.1900 C   0  0  2  0  0  0  0  0  0  0  0  0
  -31.3638   64.0971   63.3098 O   0  0  0  0  0  0  0  0  0  0  0  0
  -31.0055   64.1786   60.3744 C   0  0  0  0  0  0  0  0  0  0  0  0
  -33.0367   70.4384   61.3722 O   0  0  0  0  0  0  0  0  0  0  0  0
  -30.6246   62.9714   60.7426 C   0  0  0  0  0  0  0  0  0  0  0  0
  -32.8814   70.3696   58.5396 O   0  0  0  0  0  0  0  0  0  0  0  0
  -30.8265   61.7465   59.9122 C   0  0  0  0  0  0  0  0  0  0  0  0
  -32.9557   67.6751   58.0737 O   0  0  0  0  0  0  0  0  0  0  0  0
  -29.4892   61.0836   59.5755 C   0  0  0  0  0  0  0  0  0  0  0  0
  -34.2192   67.0740   60.5876 O   0  0  0  0  0  0  0  0  0  0  0  0
  -29.6114   59.8360   58.7157 C   0  0  0  0  0  0  0  0  0  0  0  0
  -35.9633   65.1340   59.5583 O   0  0  0  0  0  0  0  0  0  0  0  0
  -30.2499   60.0732   57.3578 C   0  0  0  0  0  0  0  0  0  0  0  0
  -32.1393   71.6178   56.6165 O   0  0  0  0  0  0  0  0  0  0  0  0
  -31.6598   60.6414   57.4278 C   0  0  0  0  0  0  0  0  0  0  0  0
  -34.5899   71.3907   57.1248 O   0  5  0  0  0  0  0  0  0  0  0  0
  -32.2986   60.8602   56.0650 C   0  0  0  0  0  0  0  0  0  0  0  0
  -33.2989   69.5597   56.3392 O   0  0  0  0  0  0  0  0  0  0  0  0
  -33.6993   61.4431   56.1323 C   0  0  0  0  0  0  0  0  0  0  0  0
  -33.7711   62.8042   56.7990 C   0  0  0  0  0  0  0  0  0  0  0  0
  -33.2675   62.8149   58.2321 C   0  0  0  0  0  0  0  0  0  0  0  0
  -34.0365   61.8716   59.1384 C   0  0  0  0  0  0  0  0  0  0  0  0
  -35.5221   62.1632   59.2298 C   0  0  0  0  0  0  0  0  0  0  0  0
  -36.2471   61.2084   60.1579 C   0  0  0  0  0  0  0  0  0  0  0  0
  -37.7334   61.4903   60.2347 C   0  0  0  0  0  0  0  0  0  0  0  0
  -32.5596   64.2152   63.0586 C   0  0  0  0  0  0  0  0  0  0  0  0
  -33.5934   63.3253   63.7025 C   0  0  0  0  0  0  0  0  0  0  0  0
  -34.8154   63.1137   62.8180 C   0  0  0  0  0  0  0  0  0  0  0  0
  -34.4732   62.4502   61.4937 C   0  0  0  0  0  0  0  0  0  0  0  0
  -33.8532   61.0703   61.6379 C   0  0  0  0  0  0  0  0  0  0  0  0
  -34.7518   60.0623   62.3387 C   0  0  0  0  0  0  0  0  0  0  0  0
  -34.1271   58.6823   62.5003 C   0  0  0  0  0  0  0  0  0  0  0  0
  -33.7392   58.0226   61.1833 C   0  0  0  0  0  0  0  0  0  0  0  0
  -33.1272   56.6316   61.3274 C   0  0  0  0  0  0  0  0  0  0  0  0
  -31.8539   56.5966   62.1710 C   0  0  0  0  0  0  0  0  0  0  0  0
  -30.7154   57.4692   61.6429 C   0  0  0  0  0  0  0  0  0  0  0  0
  -29.4494   57.4011   62.4971 C   0  0  0  0  0  0  0  0  0  0  0  0
  -28.8202   56.0127   62.6122 C   0  0  0  0  0  0  0  0  0  0  0  0
  -28.3711   55.3960   61.2847 C   0  0  0  0  0  0  0  0  0  0  0  0
  -27.3271   56.2164   60.5840 C   0  0  0  0  0  0  0  0  0  0  0  0
  -26.7685   55.9358   59.4199 C   0  0  0  0  0  0  0  0  0  0  0  0
  -27.0670   54.7428   58.5633 C   0  0  0  0  0  0  0  0  0  0  0  0
  -25.8512   53.8493   58.3087 C   0  0  0  0  0  0  0  0  0  0  0  0
  -24.7041   54.5756   57.6188 C   0  0  0  0  0  0  0  0  0  0  0  0
  -24.1619   55.7517   58.4232 C   0  0  0  0  0  0  0  0  0  0  0  0
  -23.5976   55.3759   59.7886 C   0  0  0  0  0  0  0  0  0  0  0  0
  -23.0765   56.5642   60.5845 C   0  0  0  0  0  0  0  0  0  0  0  0
  -22.4960   56.1980   61.9412 C   0  0  0  0  0  0  0  0  0  0  0  0
  -23.4983   55.5085   62.8444 C   0  0  0  0  0  0  0  0  0  0  0  0
  -34.0138   68.2339   61.3725 C   0  0  2  0  0  0  0  0  0  0  0  0
  -33.1864   69.2534   60.6005 C   0  0  1  0  0  0  0  0  0  0  0  0
  -33.8630   69.5708   59.2729 C   0  0  2  0  0  0  0  0  0  0  0  0
  -34.1647   68.2982   58.4952 C   0  0  2  0  0  0  0  0  0  0  0  0
  -34.9504   67.3319   59.3783 C   0  0  1  0  0  0  0  0  0  0  0  0
  -35.1970   65.9935   58.7222 C   0  0  0  0  0  0  0  0  0  0  0  0
  -33.2636   70.9000   57.0917 S   0  0  0  0  0  0  0  0  0  0  0  0
  -34.0058   65.1700   62.0585 H   0  0  0  0  0  0  0  0  0  0  0  0
  -31.5648   67.1148   63.2609 H   0  0  0  0  0  0  0  0  0  0  0  0
  -31.4012   68.0473   61.8019 H   0  0  0  0  0  0  0  0  0  0  0  0
  -32.6374   66.3625   60.5752 H   0  0  0  0  0  0  0  0  0  0  0  0
  -29.9008   67.1635   61.0564 H   0  0  0  0  0  0  0  0  0  0  0  0
  -30.3647   65.1308   62.1077 H   0  0  0  0  0  0  0  0  0  0  0  0
  -31.4592   64.2738   59.4524 H   0  0  0  0  0  0  0  0  0  0  0  0
  -32.6053   70.2237   62.2140 H   0  0  0  0  0  0  0  0  0  0  0  0
  -30.1599   62.8667   61.6581 H   0  0  0  0  0  0  0  0  0  0  0  0
  -31.3208   62.0182   59.0030 H   0  0  0  0  0  0  0  0  0  0  0  0
  -31.4197   61.0519   60.4694 H   0  0  0  0  0  0  0  0  0  0  0  0
  -32.4550   68.2876   57.5124 H   0  0  0  0  0  0  0  0  0  0  0  0
  -29.0083   60.8134   60.4924 H   0  0  0  0  0  0  0  0  0  0  0  0
  -28.9278   61.7951   59.0069 H   0  0  0  0  0  0  0  0  0  0  0  0
  -30.2056   59.1208   59.2451 H   0  0  0  0  0  0  0  0  0  0  0  0
  -28.6150   59.4927   58.5302 H   0  0  0  0  0  0  0  0  0  0  0  0
  -36.1031   64.2860   59.1086 H   0  0  0  0  0  0  0  0  0  0  0  0
  -30.2889   59.1396   56.8365 H   0  0  0  0  0  0  0  0  0  0  0  0
  -29.6474   60.8008   56.8552 H   0  0  0  0  0  0  0  0  0  0  0  0
  -32.0855   72.4727   57.0717 H   0  0  0  0  0  0  0  0  0  0  0  0
  -31.6204   61.5815   57.9374 H   0  0  0  0  0  0  0  0  0  0  0  0
  -32.2616   59.9227   57.9438 H   0  0  0  0  0  0  0  0  0  0  0  0
  -32.3490   59.9179   55.5607 H   0  0  0  0  0  0  0  0  0  0  0  0
  -31.6898   61.5702   55.5453 H   0  0  0  0  0  0  0  0  0  0  0  0
  -32.4032   69.1898   56.2954 H   0  0  0  0  0  0  0  0  0  0  0  0
  -34.3192   60.7662   56.6822 H   0  0  0  0  0  0  0  0  0  0  0  0
  -34.0277   61.5757   55.1226 H   0  0  0  0  0  0  0  0  0  0  0  0
  -34.7914   63.1265   56.7980 H   0  0  0  0  0  0  0  0  0  0  0  0
  -33.1334   63.4575   56.2408 H   0  0  0  0  0  0  0  0  0  0  0  0
  -33.3589   63.8086   58.6182 H   0  0  0  0  0  0  0  0  0  0  0  0
  -32.2500   62.4843   58.2160 H   0  0  0  0  0  0  0  0  0  0  0  0
  -33.6210   61.9395   60.1221 H   0  0  0  0  0  0  0  0  0  0  0  0
  -33.9426   60.8945   58.7126 H   0  0  0  0  0  0  0  0  0  0  0  0
  -35.9484   62.0806   58.2518 H   0  0  0  0  0  0  0  0  0  0  0  0
  -35.6350   63.1502   59.6272 H   0  0  0  0  0  0  0  0  0  0  0  0
  -35.8294   61.2998   61.1387 H   0  0  0  0  0  0  0  0  0  0  0  0
  -36.1236   60.2196   59.7681 H   0  0  0  0  0  0  0  0  0  0  0  0
  -37.8901   62.4753   60.6222 H   0  0  0  0  0  0  0  0  0  0  0  0
  -38.1992   60.7749   60.8799 H   0  0  0  0  0  0  0  0  0  0  0  0
  -38.1609   61.4197   59.2564 H   0  0  0  0  0  0  0  0  0  0  0  0
  -33.9085   63.7748   64.6209 H   0  0  0  0  0  0  0  0  0  0  0  0
  -33.1418   62.3692   63.8662 H   0  0  0  0  0  0  0  0  0  0  0  0
  -35.2627   64.0651   62.6188 H   0  0  0  0  0  0  0  0  0  0  0  0
  -35.4849   62.4637   63.3417 H   0  0  0  0  0  0  0  0  0  0  0  0
  -33.7811   63.0775   60.9716 H   0  0  0  0  0  0  0  0  0  0  0  0
  -35.3936   62.3231   60.9631 H   0  0  0  0  0  0  0  0  0  0  0  0
  -32.9485   61.1644   62.2015 H   0  0  0  0  0  0  0  0  0  0  0  0
  -33.6835   60.7005   60.6483 H   0  0  0  0  0  0  0  0  0  0  0  0
  -35.6512   59.9597   61.7683 H   0  0  0  0  0  0  0  0  0  0  0  0
  -34.9296   60.4389   63.3244 H   0  0  0  0  0  0  0  0  0  0  0  0
  -34.8314   58.0500   62.9994 H   0  0  0  0  0  0  0  0  0  0  0  0
  -33.2245   58.8135   63.0598 H   0  0  0  0  0  0  0  0  0  0  0  0
  -33.0270   58.6517   60.6915 H   0  0  0  0  0  0  0  0  0  0  0  0
  -34.6446   57.9002   60.6263 H   0  0  0  0  0  0  0  0  0  0  0  0
  -32.8934   56.2641   60.3500 H   0  0  0  0  0  0  0  0  0  0  0  0
  -33.8502   56.0265   61.8334 H   0  0  0  0  0  0  0  0  0  0  0  0
  -31.5078   55.5849   62.2108 H   0  0  0  0  0  0  0  0  0  0  0  0
  -32.1159   56.9891   63.1313 H   0  0  0  0  0  0  0  0  0  0  0  0
  -31.0515   58.4847   61.6155 H   0  0  0  0  0  0  0  0  0  0  0  0
  -30.4603   57.1003   60.6714 H   0  0  0  0  0  0  0  0  0  0  0  0
  -29.6959   57.7363   63.4828 H   0  0  0  0  0  0  0  0  0  0  0  0
  -28.7250   58.0174   62.0068 H   0  0  0  0  0  0  0  0  0  0  0  0
  -29.5400   55.3575   63.0564 H   0  0  0  0  0  0  0  0  0  0  0  0
  -27.9353   56.1324   63.2018 H   0  0  0  0  0  0  0  0  0  0  0  0
  -29.2232   55.3075   60.6436 H   0  0  0  0  0  0  0  0  0  0  0  0
  -27.9374   54.4426   61.5036 H   0  0  0  0  0  0  0  0  0  0  0  0
  -27.0169   57.0803   61.0555 H   0  0  0  0  0  0  0  0  0  0  0  0
  -26.0610   56.5996   59.0680 H   0  0  0  0  0  0  0  0  0  0  0  0
  -27.4362   55.0880   57.6201 H   0  0  0  0  0  0  0  0  0  0  0  0
  -27.7855   54.1508   59.0907 H   0  0  0  0  0  0  0  0  0  0  0  0
  -26.1551   53.0302   57.6909 H   0  0  0  0  0  0  0  0  0  0  0  0
  -25.4921   53.5233   59.2624 H   0  0  0  0  0  0  0  0  0  0  0  0
  -25.0526   54.9416   56.6756 H   0  0  0  0  0  0  0  0  0  0  0  0
  -23.9051   53.8724   57.5092 H   0  0  0  0  0  0  0  0  0  0  0  0
  -24.9581   56.4509   58.5713 H   0  0  0  0  0  0  0  0  0  0  0  0
  -23.3486   56.1578   57.8587 H   0  0  0  0  0  0  0  0  0  0  0  0
  -22.7916   54.6875   59.6430 H   0  0  0  0  0  0  0  0  0  0  0  0
  -24.4016   54.9509   60.3524 H   0  0  0  0  0  0  0  0  0  0  0  0
  -23.8864   57.2462   60.7389 H   0  0  0  0  0  0  0  0  0  0  0  0
  -22.2787   56.9913   60.0134 H   0  0  0  0  0  0  0  0  0  0  0  0
  -22.1619   57.0933   62.4226 H   0  0  0  0  0  0  0  0  0  0  0  0
  -21.6915   55.5131   61.7722 H   0  0  0  0  0  0  0  0  0  0  0  0
  -24.3193   56.1677   63.0349 H   0  0  0  0  0  0  0  0  0  0  0  0
  -23.0264   55.2502   63.7693 H   0  0  0  0  0  0  0  0  0  0  0  0
  -23.8571   54.6207   62.3669 H   0  0  0  0  0  0  0  0  0  0  0  0
  -34.9727   68.6430   61.6132 H   0  0  0  0  0  0  0  0  0  0  0  0
  -32.2173   68.8444   60.4048 H   0  0  0  0  0  0  0  0  0  0  0  0
  -34.7946   70.0773   59.4161 H   0  0  0  0  0  0  0  0  0  0  0  0
  -34.7440   68.5528   57.6324 H   0  0  0  0  0  0  0  0  0  0  0  0
  -35.8917   67.8050   59.5651 H   0  0  0  0  0  0  0  0  0  0  0  0
  -35.7263   66.1485   57.8053 H   0  0  0  0  0  0  0  0  0  0  0  0
  -34.2500   65.5290   58.5427 H   0  0  0  0  0  0  0  0  0  0  0  0
  1  4  1  0  0  0  0
  1 31  1  0  0  0  0
  1 62  1  0  0  0  0
  2  3  1  0  0  0  0
  2  4  1  0  0  0  0
  2 63  1  0  0  0  0
  2 64  1  0  0  0  0
  3 55  1  0  0  0  0
  4  6  1  0  0  0  0
  4 65  1  6  0  0  0
  5  6  1  0  0  0  0
  5 66  1  0  0  0  0
  6  8  1  0  0  0  0
  6 67  1  1  0  0  0
  7 31  2  0  0  0  0
  8 10  2  0  0  0  0
  8 68  1  0  0  0  0
  9 56  1  0  0  0  0
  9 69  1  0  0  0  0
 10 12  1  0  0  0  0
 10 70  1  0  0  0  0
 11 57  1  0  0  0  0
 11 61  1  0  0  0  0
 12 14  1  0  0  0  0
 12 71  1  0  0  0  0
 12 72  1  0  0  0  0
 13 58  1  0  0  0  0
 13 73  1  0  0  0  0
 14 16  1  0  0  0  0
 14 74  1  0  0  0  0
 14 75  1  0  0  0  0
 15 55  1  0  0  0  0
 15 59  1  0  0  0  0
 16 18  1  0  0  0  0
 16 76  1  0  0  0  0
 16 77  1  0  0  0  0
 17 60  1  0  0  0  0
 17 78  1  0  0  0  0
 18 20  1  0  0  0  0
 18 79  1  0  0  0  0
 18 80  1  0  0  0  0
 19 61  1  0  0  0  0
 19 81  1  0  0  0  0
 20 22  1  0  0  0  0
 20 82  1  0  0  0  0
 20 83  1  0  0  0  0
 21 61  1  0  0  0  0
 22 24  1  0  0  0  0
 22 84  1  0  0  0  0
 22 85  1  0  0  0  0
 23 61  1  0  0  0  0
 23 86  1  0  0  0  0
 24 25  1  0  0  0  0
 24 87  1  0  0  0  0
 24 88  1  0  0  0  0
 25 26  1  0  0  0  0
 25 89  1  0  0  0  0
 25 90  1  0  0  0  0
 26 27  1  0  0  0  0
 26 91  1  0  0  0  0
 26 92  1  0  0  0  0
 27 28  1  0  0  0  0
 27 93  1  0  0  0  0
 27 94  1  0  0  0  0
 28 29  1  0  0  0  0
 28 95  1  0  0  0  0
 28 96  1  0  0  0  0
 29 30  1  0  0  0  0
 29 97  1  0  0  0  0
 29 98  1  0  0  0  0
 30 99  1  0  0  0  0
 30100  1  0  0  0  0
 30101  1  0  0  0  0
 31 32  1  0  0  0  0
 32 33  1  0  0  0  0
 32102  1  0  0  0  0
 32103  1  0  0  0  0
 33 34  1  0  0  0  0
 33104  1  0  0  0  0
 33105  1  0  0  0  0
 34 35  1  0  0  0  0
 34106  1  0  0  0  0
 34107  1  0  0  0  0
 35 36  1  0  0  0  0
 35108  1  0  0  0  0
 35109  1  0  0  0  0
 36 37  1  0  0  0  0
 36110  1  0  0  0  0
 36111  1  0  0  0  0
 37 38  1  0  0  0  0
 37112  1  0  0  0  0
 37113  1  0  0  0  0
 38 39  1  0  0  0  0
 38114  1  0  0  0  0
 38115  1  0  0  0  0
 39 40  1  0  0  0  0
 39116  1  0  0  0  0
 39117  1  0  0  0  0
 40 41  1  0  0  0  0
 40118  1  0  0  0  0
 40119  1  0  0  0  0
 41 42  1  0  0  0  0
 41120  1  0  0  0  0
 41121  1  0  0  0  0
 42 43  1  0  0  0  0
 42122  1  0  0  0  0
 42123  1  0  0  0  0
 43 44  1  0  0  0  0
 43124  1  0  0  0  0
 43125  1  0  0  0  0
 44 45  1  0  0  0  0
 44126  1  0  0  0  0
 44127  1  0  0  0  0
 45 46  2  0  0  0  0
 45128  1  0  0  0  0
 46 47  1  0  0  0  0
 46129  1  0  0  0  0
 47 48  1  0  0  0  0
 47130  1  0  0  0  0
 47131  1  0  0  0  0
 48 49  1  0  0  0  0
 48132  1  0  0  0  0
 48133  1  0  0  0  0
 49 50  1  0  0  0  0
 49134  1  0  0  0  0
 49135  1  0  0  0  0
 50 51  1  0  0  0  0
 50136  1  0  0  0  0
 50137  1  0  0  0  0
 51 52  1  0  0  0  0
 51138  1  0  0  0  0
 51139  1  0  0  0  0
 52 53  1  0  0  0  0
 52140  1  0  0  0  0
 52141  1  0  0  0  0
 53 54  1  0  0  0  0
 53142  1  0  0  0  0
 53143  1  0  0  0  0
 54144  1  0  0  0  0
 54145  1  0  0  0  0
 54146  1  0  0  0  0
 55 56  1  0  0  0  0
 55147  1  1  0  0  0
 56 57  1  0  0  0  0
 56148  1  6  0  0  0
 57 58  1  0  0  0  0
 57149  1  1  0  0  0
 58 59  1  0  0  0  0
 58150  1  6  0  0  0
 59 60  1  0  0  0  0
 59151  1  1  0  0  0
 60152  1  0  0  0  0
 60153  1  0  0  0  0
M  CHG  1  21  -1
M  END
$$$$