/media/chris/experiments/cd1a-new-docking/inputs/ligands/7ryn_ligand.pdb
 OpenBabel07032312553D

153153  0  0  1  0  0  0  0  0999 V2000
  -33.0340   65.1330   62.2120 N   0  0  0  0  0  0  0  0  0  0  0  0
  -32.0220   67.3480   62.3220 C   0  0  0  0  0  0  0  0  0  0  0  0
  -33.3204   67.9104   62.5424 O   0  0  0  0  0  0  0  0  0  0  0  0
  -32.1830   66.0840   61.5030 C   0  0  1  0  0  0  0  0  0  0  0  0
  -30.2154   65.0225   62.4176 O   0  0  0  0  0  0  0  0  0  0  0  0
  -30.8310   65.4230   61.1900 C   0  0  2  0  0  0  0  0  0  0  0  0
  -35.0701   64.2925   62.6764 O   0  0  0  0  0  0  0  0  0  0  0  0
  -29.9369   66.3439   60.4177 C   0  0  0  0  0  0  0  0  0  0  0  0
  -35.3151   69.8361   62.1498 O   0  0  0  0  0  0  0  0  0  0  0  0
  -29.8817   66.4205   59.1027 C   0  0  0  0  0  0  0  0  0  0  0  0
  -36.2332   71.0293   64.5551 O   0  0  0  0  0  0  0  0  0  0  0  0
  -28.9891   67.3610   58.3614 C   0  0  0  0  0  0  0  0  0  0  0  0
  -34.7894   69.6393   66.4168 O   0  0  0  0  0  0  0  0  0  0  0  0
  -28.0184   66.5999   57.4561 C   0  0  0  0  0  0  0  0  0  0  0  0
  -32.7334   68.8853   64.5507 O   0  0  0  0  0  0  0  0  0  0  0  0
  -27.0628   67.4906   56.6789 C   0  0  0  0  0  0  0  0  0  0  0  0
  -31.8166   70.8306   67.4934 O   0  0  0  0  0  0  0  0  0  0  0  0
  -26.1094   66.7379   55.7667 C   0  0  0  0  0  0  0  0  0  0  0  0
  -36.2134   73.4312   64.7481 O   0  0  0  0  0  0  0  0  0  0  0  0
  -26.8026   65.9172   54.6889 C   0  0  0  0  0  0  0  0  0  0  0  0
  -36.4108   71.9862   66.7947 O   0  5  0  0  0  0  0  0  0  0  0  0
  -27.6512   66.7486   53.7392 C   0  0  0  0  0  0  0  0  0  0  0  0
  -38.1902   72.2024   65.2379 O   0  0  0  0  0  0  0  0  0  0  0  0
  -26.8625   67.7930   52.9690 C   0  0  0  0  0  0  0  0  0  0  0  0
  -25.7722   67.2167   52.0851 C   0  0  0  0  0  0  0  0  0  0  0  0
  -26.2854   66.2739   51.0103 C   0  0  0  0  0  0  0  0  0  0  0  0
  -25.1775   65.6962   50.1493 C   0  0  0  0  0  0  0  0  0  0  0  0
  -25.6575   64.7629   49.0543 C   0  0  0  0  0  0  0  0  0  0  0  0
  -24.5176   64.1964   48.2307 C   0  0  0  0  0  0  0  0  0  0  0  0
  -23.6970   65.2760   47.5556 C   0  0  0  0  0  0  0  0  0  0  0  0
  -34.3610   65.0876   62.0665 C   0  0  0  0  0  0  0  0  0  0  0  0
  -34.9461   66.0885   61.1016 C   0  0  0  0  0  0  0  0  0  0  0  0
  -36.2104   65.5768   60.4231 C   0  0  0  0  0  0  0  0  0  0  0  0
  -35.9768   64.2974   59.6359 C   0  0  0  0  0  0  0  0  0  0  0  0
  -34.9383   64.4324   58.5347 C   0  0  0  0  0  0  0  0  0  0  0  0
  -35.2803   65.4865   57.4924 C   0  0  0  0  0  0  0  0  0  0  0  0
  -34.2499   65.6130   56.3775 C   0  0  0  0  0  0  0  0  0  0  0  0
  -34.5864   66.6808   55.3447 C   0  0  0  0  0  0  0  0  0  0  0  0
  -35.9169   66.4707   54.6264 C   0  0  0  0  0  0  0  0  0  0  0  0
  -36.0114   65.1490   53.8659 C   0  0  0  0  0  0  0  0  0  0  0  0
  -37.3319   64.9318   53.1274 C   0  0  0  0  0  0  0  0  0  0  0  0
  -37.4044   63.5945   52.3901 C   0  0  0  0  0  0  0  0  0  0  0  0
  -36.3240   63.3804   51.3301 C   0  0  0  0  0  0  0  0  0  0  0  0
  -36.3071   64.4207   50.2070 C   0  0  0  0  0  0  0  0  0  0  0  0
  -36.0611   65.8149   50.7070 C   0  0  0  0  0  0  0  0  0  0  0  0
  -34.8825   66.3965   50.8431 C   0  0  0  0  0  0  0  0  0  0  0  0
  -33.5537   65.7820   50.5226 C   0  0  0  0  0  0  0  0  0  0  0  0
  -32.6100   65.6972   51.7242 C   0  0  0  0  0  0  0  0  0  0  0  0
  -31.2565   65.0872   51.3849 C   0  0  0  0  0  0  0  0  0  0  0  0
  -30.3208   64.9861   52.5843 C   0  0  0  0  0  0  0  0  0  0  0  0
  -28.9519   64.3941   52.2689 C   0  0  0  0  0  0  0  0  0  0  0  0
  -28.0373   64.2850   53.4808 C   0  0  0  0  0  0  0  0  0  0  0  0
  -28.5781   63.3976   54.5907 C   0  0  0  0  0  0  0  0  0  0  0  0
  -27.6536   63.3231   55.7889 C   0  0  0  0  0  0  0  0  0  0  0  0
  -33.3156   69.0988   63.2783 C   0  0  2  0  0  0  0  0  0  0  0  0
  -34.7576   69.5657   63.4297 C   0  0  1  0  0  0  0  0  0  0  0  0
  -34.8089   70.8140   64.3015 C   0  0  2  0  0  0  0  0  0  0  0  0
  -34.0866   70.5888   65.6217 C   0  0  2  0  0  0  0  0  0  0  0  0
  -32.6741   70.0760   65.3523 C   0  0  1  0  0  0  0  0  0  0  0  0
  -31.9211   69.7182   66.6122 C   0  0  0  0  0  0  0  0  0  0  0  0
  -36.6672   72.2789   65.4347 S   0  0  0  0  0  0  0  0  0  0  0  0
  -32.6087   64.4935   62.8279 H   0  0  0  0  0  0  0  0  0  0  0  0
  -31.5648   67.1148   63.2609 H   0  0  0  0  0  0  0  0  0  0  0  0
  -31.4012   68.0473   61.8019 H   0  0  0  0  0  0  0  0  0  0  0  0
  -32.6374   66.3625   60.5752 H   0  0  0  0  0  0  0  0  0  0  0  0
  -30.8116   64.4280   62.8994 H   0  0  0  0  0  0  0  0  0  0  0  0
  -30.9971   64.5628   60.5757 H   0  0  0  0  0  0  0  0  0  0  0  0
  -29.3156   66.9669   60.9570 H   0  0  0  0  0  0  0  0  0  0  0  0
  -35.2768   69.0347   61.6046 H   0  0  0  0  0  0  0  0  0  0  0  0
  -30.4908   65.7941   58.5535 H   0  0  0  0  0  0  0  0  0  0  0  0
  -28.4293   67.9400   59.0658 H   0  0  0  0  0  0  0  0  0  0  0  0
  -29.5964   67.9962   57.7510 H   0  0  0  0  0  0  0  0  0  0  0  0
  -35.6873   69.9632   66.5891 H   0  0  0  0  0  0  0  0  0  0  0  0
  -28.5907   66.0294   56.7549 H   0  0  0  0  0  0  0  0  0  0  0  0
  -27.4170   65.9881   58.0956 H   0  0  0  0  0  0  0  0  0  0  0  0
  -26.4821   68.0521   57.3807 H   0  0  0  0  0  0  0  0  0  0  0  0
  -27.6655   68.1102   56.0483 H   0  0  0  0  0  0  0  0  0  0  0  0
  -31.3292   70.5677   68.2897 H   0  0  0  0  0  0  0  0  0  0  0  0
  -25.5210   66.0760   56.3673 H   0  0  0  0  0  0  0  0  0  0  0  0
  -25.5172   67.4732   55.2631 H   0  0  0  0  0  0  0  0  0  0  0  0
  -35.2523   73.5115   64.8513 H   0  0  0  0  0  0  0  0  0  0  0  0
  -27.4354   65.1983   55.1662 H   0  0  0  0  0  0  0  0  0  0  0  0
  -26.0344   65.4585   54.1021 H   0  0  0  0  0  0  0  0  0  0  0  0
  -28.4055   67.2485   54.3103 H   0  0  0  0  0  0  0  0  0  0  0  0
  -28.0638   66.0745   53.0180 H   0  0  0  0  0  0  0  0  0  0  0  0
  -38.4069   72.3981   64.3129 H   0  0  0  0  0  0  0  0  0  0  0  0
  -26.4080   68.4581   53.6733 H   0  0  0  0  0  0  0  0  0  0  0  0
  -27.5556   68.2885   52.3217 H   0  0  0  0  0  0  0  0  0  0  0  0
  -25.0852   66.6792   52.7048 H   0  0  0  0  0  0  0  0  0  0  0  0
  -25.3125   68.0412   51.5814 H   0  0  0  0  0  0  0  0  0  0  0  0
  -26.9619   66.8120   50.3796 H   0  0  0  0  0  0  0  0  0  0  0  0
  -26.7654   65.4557   51.5052 H   0  0  0  0  0  0  0  0  0  0  0  0
  -24.5096   65.1521   50.7839 H   0  0  0  0  0  0  0  0  0  0  0  0
  -24.7072   66.5239   49.6608 H   0  0  0  0  0  0  0  0  0  0  0  0
  -26.3133   65.3046   48.4052 H   0  0  0  0  0  0  0  0  0  0  0  0
  -26.1573   63.9417   49.5242 H   0  0  0  0  0  0  0  0  0  0  0  0
  -24.9245   63.5537   47.4781 H   0  0  0  0  0  0  0  0  0  0  0  0
  -23.8699   63.6636   48.8951 H   0  0  0  0  0  0  0  0  0  0  0  0
  -24.3190   65.8282   46.8824 H   0  0  0  0  0  0  0  0  0  0  0  0
  -22.8939   64.8253   47.0108 H   0  0  0  0  0  0  0  0  0  0  0  0
  -23.2986   65.9370   48.2967 H   0  0  0  0  0  0  0  0  0  0  0  0
  -34.2171   66.3060   60.3491 H   0  0  0  0  0  0  0  0  0  0  0  0
  -35.2087   66.9625   61.6602 H   0  0  0  0  0  0  0  0  0  0  0  0
  -36.5683   66.3304   59.7531 H   0  0  0  0  0  0  0  0  0  0  0  0
  -36.9234   65.3586   61.1905 H   0  0  0  0  0  0  0  0  0  0  0  0
  -36.9037   64.0020   59.1904 H   0  0  0  0  0  0  0  0  0  0  0  0
  -35.6033   63.5713   60.3274 H   0  0  0  0  0  0  0  0  0  0  0  0
  -34.8458   63.4877   58.0409 H   0  0  0  0  0  0  0  0  0  0  0  0
  -34.0271   64.7417   59.0026 H   0  0  0  0  0  0  0  0  0  0  0  0
  -35.3609   66.4330   57.9850 H   0  0  0  0  0  0  0  0  0  0  0  0
  -36.1973   65.1816   57.0331 H   0  0  0  0  0  0  0  0  0  0  0  0
  -34.1782   64.6703   55.8765 H   0  0  0  0  0  0  0  0  0  0  0  0
  -33.3288   65.9047   56.8374 H   0  0  0  0  0  0  0  0  0  0  0  0
  -33.8083   66.6921   54.6102 H   0  0  0  0  0  0  0  0  0  0  0  0
  -34.6716   67.6042   55.8786 H   0  0  0  0  0  0  0  0  0  0  0  0
  -36.0525   67.2706   53.9287 H   0  0  0  0  0  0  0  0  0  0  0  0
  -36.6755   66.4485   55.3807 H   0  0  0  0  0  0  0  0  0  0  0  0
  -35.8864   64.3508   54.5675 H   0  0  0  0  0  0  0  0  0  0  0  0
  -35.2467   65.1746   53.1179 H   0  0  0  0  0  0  0  0  0  0  0  0
  -37.4544   65.7194   52.4135 H   0  0  0  0  0  0  0  0  0  0  0  0
  -38.1080   64.9280   53.8640 H   0  0  0  0  0  0  0  0  0  0  0  0
  -38.3581   63.5323   51.9089 H   0  0  0  0  0  0  0  0  0  0  0  0
  -37.2509   62.8370   53.1300 H   0  0  0  0  0  0  0  0  0  0  0  0
  -36.4774   62.4177   50.8890 H   0  0  0  0  0  0  0  0  0  0  0  0
  -35.3855   63.4700   51.8361 H   0  0  0  0  0  0  0  0  0  0  0  0
  -37.2528   64.3991   49.7070 H   0  0  0  0  0  0  0  0  0  0  0  0
  -35.5028   64.1691   49.5477 H   0  0  0  0  0  0  0  0  0  0  0  0
  -36.8901   66.3709   50.9690 H   0  0  0  0  0  0  0  0  0  0  0  0
  -34.8765   67.3635   51.2034 H   0  0  0  0  0  0  0  0  0  0  0  0
  -33.0828   66.3718   49.7641 H   0  0  0  0  0  0  0  0  0  0  0  0
  -33.7421   64.7789   50.2013 H   0  0  0  0  0  0  0  0  0  0  0  0
  -33.0738   65.0966   52.4786 H   0  0  0  0  0  0  0  0  0  0  0  0
  -32.4319   66.6979   52.0586 H   0  0  0  0  0  0  0  0  0  0  0  0
  -30.7878   65.6948   50.6392 H   0  0  0  0  0  0  0  0  0  0  0  0
  -31.4365   64.0906   51.0395 H   0  0  0  0  0  0  0  0  0  0  0  0
  -30.7894   64.3699   53.3229 H   0  0  0  0  0  0  0  0  0  0  0  0
  -30.1495   65.9867   52.9223 H   0  0  0  0  0  0  0  0  0  0  0  0
  -28.4747   65.0161   51.5407 H   0  0  0  0  0  0  0  0  0  0  0  0
  -29.1168   63.3991   51.9115 H   0  0  0  0  0  0  0  0  0  0  0  0
  -27.8884   65.2670   53.8786 H   0  0  0  0  0  0  0  0  0  0  0  0
  -27.1286   63.8337   53.1410 H   0  0  0  0  0  0  0  0  0  0  0  0
  -28.7143   62.4099   54.2025 H   0  0  0  0  0  0  0  0  0  0  0  0
  -29.5009   63.8254   54.9231 H   0  0  0  0  0  0  0  0  0  0  0  0
  -26.7177   62.8983   55.4913 H   0  0  0  0  0  0  0  0  0  0  0  0
  -28.0987   62.7109   56.5452 H   0  0  0  0  0  0  0  0  0  0  0  0
  -27.4916   64.3073   56.1762 H   0  0  0  0  0  0  0  0  0  0  0  0
  -32.7377   69.8438   62.7723 H   0  0  0  0  0  0  0  0  0  0  0  0
  -35.3300   68.7932   63.8992 H   0  0  0  0  0  0  0  0  0  0  0  0
  -34.3360   71.6474   63.8253 H   0  0  0  0  0  0  0  0  0  0  0  0
  -34.0399   71.5181   66.1499 H   0  0  0  0  0  0  0  0  0  0  0  0
  -32.1619   70.8745   64.8573 H   0  0  0  0  0  0  0  0  0  0  0  0
  -32.4378   68.9261   67.1126 H   0  0  0  0  0  0  0  0  0  0  0  0
  -30.9325   69.4152   66.3368 H   0  0  0  0  0  0  0  0  0  0  0  0
  1  4  1  0  0  0  0
  1 31  1  0  0  0  0
  1 62  1  0  0  0  0
  2  3  1  0  0  0  0
  2  4  1  0  0  0  0
  2 63  1  0  0  0  0
  2 64  1  0  0  0  0
  3 55  1  0  0  0  0
  4  6  1  0  0  0  0
  4 65  1  6  0  0  0
  5  6  1  0  0  0  0
  5 66  1  0  0  0  0
  6  8  1  0  0  0  0
  6 67  1  6  0  0  0
  7 31  2  0  0  0  0
  8 10  2  0  0  0  0
  8 68  1  0  0  0  0
  9 56  1  0  0  0  0
  9 69  1  0  0  0  0
 10 12  1  0  0  0  0
 10 70  1  0  0  0  0
 11 57  1  0  0  0  0
 11 61  1  0  0  0  0
 12 14  1  0  0  0  0
 12 71  1  0  0  0  0
 12 72  1  0  0  0  0
 13 58  1  0  0  0  0
 13 73  1  0  0  0  0
 14 16  1  0  0  0  0
 14 74  1  0  0  0  0
 14 75  1  0  0  0  0
 15 55  1  0  0  0  0
 15 59  1  0  0  0  0
 16 18  1  0  0  0  0
 16 76  1  0  0  0  0
 16 77  1  0  0  0  0
 17 60  1  0  0  0  0
 17 78  1  0  0  0  0
 18 20  1  0  0  0  0
 18 79  1  0  0  0  0
 18 80  1  0  0  0  0
 19 61  1  0  0  0  0
 19 81  1  0  0  0  0
 20 22  1  0  0  0  0
 20 82  1  0  0  0  0
 20 83  1  0  0  0  0
 21 61  1  0  0  0  0
 22 24  1  0  0  0  0
 22 84  1  0  0  0  0
 22 85  1  0  0  0  0
 23 61  1  0  0  0  0
 23 86  1  0  0  0  0
 24 25  1  0  0  0  0
 24 87  1  0  0  0  0
 24 88  1  0  0  0  0
 25 26  1  0  0  0  0
 25 89  1  0  0  0  0
 25 90  1  0  0  0  0
 26 27  1  0  0  0  0
 26 91  1  0  0  0  0
 26 92  1  0  0  0  0
 27 28  1  0  0  0  0
 27 93  1  0  0  0  0
 27 94  1  0  0  0  0
 28 29  1  0  0  0  0
 28 95  1  0  0  0  0
 28 96  1  0  0  0  0
 29 30  1  0  0  0  0
 29 97  1  0  0  0  0
 29 98  1  0  0  0  0
 30 99  1  0  0  0  0
 30100  1  0  0  0  0
 30101  1  0  0  0  0
 31 32  1  0  0  0  0
 32 33  1  0  0  0  0
 32102  1  0  0  0  0
 32103  1  0  0  0  0
 33 34  1  0  0  0  0
 33104  1  0  0  0  0
 33105  1  0  0  0  0
 34 35  1  0  0  0  0
 34106  1  0  0  0  0
 34107  1  0  0  0  0
 35 36  1  0  0  0  0
 35108  1  0  0  0  0
 35109  1  0  0  0  0
 36 37  1  0  0  0  0
 36110  1  0  0  0  0
 36111  1  0  0  0  0
 37 38  1  0  0  0  0
 37112  1  0  0  0  0
 37113  1  0  0  0  0
 38 39  1  0  0  0  0
 38114  1  0  0  0  0
 38115  1  0  0  0  0
 39 40  1  0  0  0  0
 39116  1  0  0  0  0
 39117  1  0  0  0  0
 40 41  1  0  0  0  0
 40118  1  0  0  0  0
 40119  1  0  0  0  0
 41 42  1  0  0  0  0
 41120  1  0  0  0  0
 41121  1  0  0  0  0
 42 43  1  0  0  0  0
 42122  1  0  0  0  0
 42123  1  0  0  0  0
 43 44  1  0  0  0  0
 43124  1  0  0  0  0
 43125  1  0  0  0  0
 44 45  1  0  0  0  0
 44126  1  0  0  0  0
 44127  1  0  0  0  0
 45 46  2  0  0  0  0
 45128  1  0  0  0  0
 46 47  1  0  0  0  0
 46129  1  0  0  0  0
 47 48  1  0  0  0  0
 47130  1  0  0  0  0
 47131  1  0  0  0  0
 48 49  1  0  0  0  0
 48132  1  0  0  0  0
 48133  1  0  0  0  0
 49 50  1  0  0  0  0
 49134  1  0  0  0  0
 49135  1  0  0  0  0
 50 51  1  0  0  0  0
 50136  1  0  0  0  0
 50137  1  0  0  0  0
 51 52  1  0  0  0  0
 51138  1  0  0  0  0
 51139  1  0  0  0  0
 52 53  1  0  0  0  0
 52140  1  0  0  0  0
 52141  1  0  0  0  0
 53 54  1  0  0  0  0
 53142  1  0  0  0  0
 53143  1  0  0  0  0
 54144  1  0  0  0  0
 54145  1  0  0  0  0
 54146  1  0  0  0  0
 55 56  1  0  0  0  0
 55147  1  6  0  0  0
 56 57  1  0  0  0  0
 56148  1  1  0  0  0
 57 58  1  0  0  0  0
 57149  1  6  0  0  0
 58 59  1  0  0  0  0
 58150  1  1  0  0  0
 59 60  1  0  0  0  0
 59151  1  6  0  0  0
 60152  1  0  0  0  0
 60153  1  0  0  0  0
M  CHG  1  21  -1
M  END
$$$$