/media/chris/experiments/cd1a-new-docking/inputs/ligands/7ryn_ligand.pdb
 OpenBabel07032312553D

153153  0  0  1  0  0  0  0  0999 V2000
  -33.0340   65.1330   62.2120 N   0  0  0  0  0  0  0  0  0  0  0  0
  -32.0220   67.3480   62.3220 C   0  0  0  0  0  0  0  0  0  0  0  0
  -31.4051   67.0024   63.5673 O   0  0  0  0  0  0  0  0  0  0  0  0
  -32.1830   66.0840   61.5030 C   0  0  1  0  0  0  0  0  0  0  0  0
  -30.2154   65.0225   62.4176 O   0  0  0  0  0  0  0  0  0  0  0  0
  -30.8310   65.4230   61.1900 C   0  0  2  0  0  0  0  0  0  0  0  0
  -32.4714   65.8137   64.2827 O   0  0  0  0  0  0  0  0  0  0  0  0
  -29.9369   66.3439   60.4177 C   0  0  0  0  0  0  0  0  0  0  0  0
  -31.4046   66.6220   66.3415 O   0  0  0  0  0  0  0  0  0  0  0  0
  -28.6200   66.3494   60.4787 C   0  0  0  0  0  0  0  0  0  0  0  0
  -29.4155   68.1261   67.6954 O   0  0  0  0  0  0  0  0  0  0  0  0
  -27.7547   67.2714   59.6837 C   0  0  0  0  0  0  0  0  0  0  0  0
  -28.1411   69.3260   65.5933 O   0  0  0  0  0  0  0  0  0  0  0  0
  -26.4595   67.5927   60.4323 C   0  0  0  0  0  0  0  0  0  0  0  0
  -30.3909   69.0606   63.8198 O   0  0  0  0  0  0  0  0  0  0  0  0
  -25.5312   68.5419   59.6922 C   0  0  0  0  0  0  0  0  0  0  0  0
  -28.1534   70.6686   63.3778 O   0  0  0  0  0  0  0  0  0  0  0  0
  -24.2371   68.8490   60.4262 C   0  0  0  0  0  0  0  0  0  0  0  0
  -28.1457   70.0889   68.2805 O   0  0  0  0  0  0  0  0  0  0  0  0
  -23.3203   69.8130   59.6873 C   0  0  0  0  0  0  0  0  0  0  0  0
  -28.4860   68.2421   69.9506 O   0  5  0  0  0  0  0  0  0  0  0  0
  -22.0195   70.1022   60.4204 C   0  0  0  0  0  0  0  0  0  0  0  0
  -30.2585   69.6783   69.2930 O   0  0  0  0  0  0  0  0  0  0  0  0
  -21.1107   71.0771   59.6927 C   0  0  0  0  0  0  0  0  0  0  0  0
  -20.6940   70.6179   58.3078 C   0  0  0  0  0  0  0  0  0  0  0  0
  -21.8566   70.4121   57.3520 C   0  0  0  0  0  0  0  0  0  0  0  0
  -22.6589   71.6776   57.1121 C   0  0  0  0  0  0  0  0  0  0  0  0
  -21.8648   72.8159   56.5005 C   0  0  0  0  0  0  0  0  0  0  0  0
  -21.2914   72.4624   55.1423 C   0  0  0  0  0  0  0  0  0  0  0  0
  -22.3654   72.1224   54.1296 C   0  0  0  0  0  0  0  0  0  0  0  0
  -33.1122   65.0716   63.5440 C   0  0  0  0  0  0  0  0  0  0  0  0
  -34.0520   64.0283   64.0950 C   0  0  0  0  0  0  0  0  0  0  0  0
  -35.2217   63.7435   63.1616 C   0  0  0  0  0  0  0  0  0  0  0  0
  -36.1798   62.7046   63.7220 C   0  0  0  0  0  0  0  0  0  0  0  0
  -36.8218   63.1060   65.0396 C   0  0  0  0  0  0  0  0  0  0  0  0
  -37.7673   62.0582   65.6077 C   0  0  0  0  0  0  0  0  0  0  0  0
  -38.9298   61.7083   64.6874 C   0  0  0  0  0  0  0  0  0  0  0  0
  -39.8162   62.8958   64.3344 C   0  0  0  0  0  0  0  0  0  0  0  0
  -40.9958   62.5580   63.4261 C   0  0  0  0  0  0  0  0  0  0  0  0
  -41.8674   63.7600   63.0656 C   0  0  0  0  0  0  0  0  0  0  0  0
  -42.4915   64.4765   64.2629 C   0  0  0  0  0  0  0  0  0  0  0  0
  -43.3714   65.6638   63.8711 C   0  0  0  0  0  0  0  0  0  0  0  0
  -44.5707   65.3174   62.9890 C   0  0  0  0  0  0  0  0  0  0  0  0
  -45.5710   64.3416   63.6144 C   0  0  0  0  0  0  0  0  0  0  0  0
  -44.9515   63.0223   63.9747 C   0  0  0  0  0  0  0  0  0  0  0  0
  -45.3084   61.8403   63.5042 C   0  0  0  0  0  0  0  0  0  0  0  0
  -46.4022   61.5792   62.5134 C   0  0  0  0  0  0  0  0  0  0  0  0
  -46.5860   60.0978   62.1770 C   0  0  0  0  0  0  0  0  0  0  0  0
  -46.9505   59.2465   63.3861 C   0  0  0  0  0  0  0  0  0  0  0  0
  -48.2608   59.6620   64.0455 C   0  0  0  0  0  0  0  0  0  0  0  0
  -49.4825   59.5644   63.1390 C   0  0  0  0  0  0  0  0  0  0  0  0
  -49.7579   58.1561   62.6311 C   0  0  0  0  0  0  0  0  0  0  0  0
  -50.9647   58.0508   61.7122 C   0  0  0  0  0  0  0  0  0  0  0  0
  -51.2223   56.6351   61.2376 C   0  0  0  0  0  0  0  0  0  0  0  0
  -31.2104   68.0828   64.4327 C   0  0  2  0  0  0  0  0  0  0  0  0
  -30.5480   67.5584   65.7001 C   0  0  1  0  0  0  0  0  0  0  0  0
  -30.2364   68.7171   66.6389 C   0  0  2  0  0  0  0  0  0  0  0  0
  -29.4420   69.8007   65.9249 C   0  0  2  0  0  0  0  0  0  0  0  0
  -30.1703   70.2134   64.6482 C   0  0  1  0  0  0  0  0  0  0  0  0
  -29.3950   71.2080   63.8163 C   0  0  0  0  0  0  0  0  0  0  0  0
  -28.9132   69.0600   68.8784 S   0  0  0  0  0  0  0  0  0  0  0  0
  -33.5772   64.5058   61.6821 H   0  0  0  0  0  0  0  0  0  0  0  0
  -31.4053   68.0450   61.7940 H   0  0  0  0  0  0  0  0  0  0  0  0
  -32.9770   67.7979   62.4965 H   0  0  0  0  0  0  0  0  0  0  0  0
  -32.6374   66.3625   60.5752 H   0  0  0  0  0  0  0  0  0  0  0  0
  -30.8116   64.4280   62.8994 H   0  0  0  0  0  0  0  0  0  0  0  0
  -30.9971   64.5628   60.5757 H   0  0  0  0  0  0  0  0  0  0  0  0
  -30.3869   67.0273   59.7888 H   0  0  0  0  0  0  0  0  0  0  0  0
  -31.5955   65.8899   65.7345 H   0  0  0  0  0  0  0  0  0  0  0  0
  -28.1601   65.6775   61.1128 H   0  0  0  0  0  0  0  0  0  0  0  0
  -28.2879   68.1809   59.5014 H   0  0  0  0  0  0  0  0  0  0  0  0
  -27.5040   66.7913   58.7609 H   0  0  0  0  0  0  0  0  0  0  0  0
  -27.6765   69.0633   66.4032 H   0  0  0  0  0  0  0  0  0  0  0  0
  -25.9349   66.6761   60.6040 H   0  0  0  0  0  0  0  0  0  0  0  0
  -26.7426   68.0845   61.3395 H   0  0  0  0  0  0  0  0  0  0  0  0
  -26.0519   69.4627   59.5315 H   0  0  0  0  0  0  0  0  0  0  0  0
  -25.2579   68.0543   58.7798 H   0  0  0  0  0  0  0  0  0  0  0  0
  -27.6822   71.3306   62.8482 H   0  0  0  0  0  0  0  0  0  0  0  0
  -23.7090   67.9305   60.5760 H   0  0  0  0  0  0  0  0  0  0  0  0
  -24.5080   69.3231   61.3464 H   0  0  0  0  0  0  0  0  0  0  0  0
  -27.2864   69.7330   68.0054 H   0  0  0  0  0  0  0  0  0  0  0  0
  -23.8425   70.7366   59.5484 H   0  0  0  0  0  0  0  0  0  0  0  0
  -23.0599   69.3481   58.7594 H   0  0  0  0  0  0  0  0  0  0  0  0
  -21.4919   69.1801   60.5483 H   0  0  0  0  0  0  0  0  0  0  0  0
  -22.2813   70.5563   61.3532 H   0  0  0  0  0  0  0  0  0  0  0  0
  -30.5856   70.2488   68.5800 H   0  0  0  0  0  0  0  0  0  0  0  0
  -20.2276   71.2165   60.2806 H   0  0  0  0  0  0  0  0  0  0  0  0
  -21.6676   71.9816   59.5639 H   0  0  0  0  0  0  0  0  0  0  0  0
  -20.1689   69.6907   58.4041 H   0  0  0  0  0  0  0  0  0  0  0  0
  -20.0849   71.3939   57.8934 H   0  0  0  0  0  0  0  0  0  0  0  0
  -22.5076   69.6685   57.7622 H   0  0  0  0  0  0  0  0  0  0  0  0
  -21.4472   70.1098   56.4108 H   0  0  0  0  0  0  0  0  0  0  0  0
  -23.0500   72.0090   58.0513 H   0  0  0  0  0  0  0  0  0  0  0  0
  -23.4236   71.4255   56.4075 H   0  0  0  0  0  0  0  0  0  0  0  0
  -21.0587   73.0640   57.1589 H   0  0  0  0  0  0  0  0  0  0  0  0
  -22.5324   73.6412   56.3659 H   0  0  0  0  0  0  0  0  0  0  0  0
  -20.6440   71.6176   55.2525 H   0  0  0  0  0  0  0  0  0  0  0  0
  -20.7625   73.3190   54.7799 H   0  0  0  0  0  0  0  0  0  0  0  0
  -22.9137   71.2669   54.4648 H   0  0  0  0  0  0  0  0  0  0  0  0
  -21.9100   71.9068   53.1856 H   0  0  0  0  0  0  0  0  0  0  0  0
  -23.0310   72.9533   54.0230 H   0  0  0  0  0  0  0  0  0  0  0  0
  -34.4370   64.3740   65.0315 H   0  0  0  0  0  0  0  0  0  0  0  0
  -33.4981   63.1198   64.2077 H   0  0  0  0  0  0  0  0  0  0  0  0
  -34.8366   63.3863   62.2293 H   0  0  0  0  0  0  0  0  0  0  0  0
  -35.7682   64.6554   63.0406 H   0  0  0  0  0  0  0  0  0  0  0  0
  -35.6382   61.7945   63.8747 H   0  0  0  0  0  0  0  0  0  0  0  0
  -36.9719   62.5972   63.0108 H   0  0  0  0  0  0  0  0  0  0  0  0
  -37.3738   64.0094   64.8843 H   0  0  0  0  0  0  0  0  0  0  0  0
  -36.0291   63.2264   65.7480 H   0  0  0  0  0  0  0  0  0  0  0  0
  -38.1670   62.4295   66.5282 H   0  0  0  0  0  0  0  0  0  0  0  0
  -37.1954   61.1633   65.7378 H   0  0  0  0  0  0  0  0  0  0  0  0
  -39.5332   60.9698   65.1726 H   0  0  0  0  0  0  0  0  0  0  0  0
  -38.5051   61.3544   63.7712 H   0  0  0  0  0  0  0  0  0  0  0  0
  -39.2127   63.6279   63.8398 H   0  0  0  0  0  0  0  0  0  0  0  0
  -40.2325   63.2487   65.2548 H   0  0  0  0  0  0  0  0  0  0  0  0
  -41.6082   61.8360   63.9247 H   0  0  0  0  0  0  0  0  0  0  0  0
  -40.5849   62.1881   62.5101 H   0  0  0  0  0  0  0  0  0  0  0  0
  -42.6587   63.4198   62.4308 H   0  0  0  0  0  0  0  0  0  0  0  0
  -41.2230   64.4697   62.5902 H   0  0  0  0  0  0  0  0  0  0  0  0
  -41.7035   64.8322   64.8934 H   0  0  0  0  0  0  0  0  0  0  0  0
  -43.1208   63.7687   64.7608 H   0  0  0  0  0  0  0  0  0  0  0  0
  -42.7629   66.3674   63.3423 H   0  0  0  0  0  0  0  0  0  0  0  0
  -43.7740   66.0509   64.7838 H   0  0  0  0  0  0  0  0  0  0  0  0
  -44.2025   64.8812   62.0839 H   0  0  0  0  0  0  0  0  0  0  0  0
  -45.1023   66.2327   62.8326 H   0  0  0  0  0  0  0  0  0  0  0  0
  -46.3618   64.1680   62.9149 H   0  0  0  0  0  0  0  0  0  0  0  0
  -45.9306   64.7856   64.5191 H   0  0  0  0  0  0  0  0  0  0  0  0
  -44.1742   63.0403   64.6533 H   0  0  0  0  0  0  0  0  0  0  0  0
  -44.7856   61.0209   63.8511 H   0  0  0  0  0  0  0  0  0  0  0  0
  -46.1725   62.1049   61.6102 H   0  0  0  0  0  0  0  0  0  0  0  0
  -47.3152   61.9144   62.9596 H   0  0  0  0  0  0  0  0  0  0  0  0
  -45.6712   59.7273   61.7641 H   0  0  0  0  0  0  0  0  0  0  0  0
  -47.3984   60.0285   61.4840 H   0  0  0  0  0  0  0  0  0  0  0  0
  -46.1657   59.3298   64.1086 H   0  0  0  0  0  0  0  0  0  0  0  0
  -47.0757   58.2421   63.0392 H   0  0  0  0  0  0  0  0  0  0  0  0
  -48.1649   60.6773   64.3693 H   0  0  0  0  0  0  0  0  0  0  0  0
  -48.4253   58.9795   64.8531 H   0  0  0  0  0  0  0  0  0  0  0  0
  -49.3284   60.2036   62.2949 H   0  0  0  0  0  0  0  0  0  0  0  0
  -50.3295   59.8566   63.7239 H   0  0  0  0  0  0  0  0  0  0  0  0
  -49.9228   57.5207   63.4761 H   0  0  0  0  0  0  0  0  0  0  0  0
  -48.9052   57.8647   62.0541 H   0  0  0  0  0  0  0  0  0  0  0  0
  -50.7983   58.6726   60.8575 H   0  0  0  0  0  0  0  0  0  0  0  0
  -51.8220   58.3634   62.2709 H   0  0  0  0  0  0  0  0  0  0  0  0
  -50.3816   56.2896   60.6731 H   0  0  0  0  0  0  0  0  0  0  0  0
  -52.0967   56.6192   60.6211 H   0  0  0  0  0  0  0  0  0  0  0  0
  -51.3707   55.9968   62.0835 H   0  0  0  0  0  0  0  0  0  0  0  0
  -32.1486   68.5400   64.6687 H   0  0  0  0  0  0  0  0  0  0  0  0
  -29.6327   67.0681   65.4416 H   0  0  0  0  0  0  0  0  0  0  0  0
  -31.1294   69.1768   67.0080 H   0  0  0  0  0  0  0  0  0  0  0  0
  -29.3488   70.6437   66.5772 H   0  0  0  0  0  0  0  0  0  0  0  0
  -31.0858   70.6667   64.9665 H   0  0  0  0  0  0  0  0  0  0  0  0
  -29.9792   71.4753   62.9606 H   0  0  0  0  0  0  0  0  0  0  0  0
  -29.1918   72.0657   64.4231 H   0  0  0  0  0  0  0  0  0  0  0  0
  1  4  1  0  0  0  0
  1 31  1  0  0  0  0
  1 62  1  0  0  0  0
  2  3  1  0  0  0  0
  2  4  1  0  0  0  0
  2 63  1  0  0  0  0
  2 64  1  0  0  0  0
  3 55  1  0  0  0  0
  4  6  1  0  0  0  0
  4 65  1  6  0  0  0
  5  6  1  0  0  0  0
  5 66  1  0  0  0  0
  6  8  1  0  0  0  0
  6 67  1  6  0  0  0
  7 31  2  0  0  0  0
  8 10  2  0  0  0  0
  8 68  1  0  0  0  0
  9 56  1  0  0  0  0
  9 69  1  0  0  0  0
 10 12  1  0  0  0  0
 10 70  1  0  0  0  0
 11 57  1  0  0  0  0
 11 61  1  0  0  0  0
 12 14  1  0  0  0  0
 12 71  1  0  0  0  0
 12 72  1  0  0  0  0
 13 58  1  0  0  0  0
 13 73  1  0  0  0  0
 14 16  1  0  0  0  0
 14 74  1  0  0  0  0
 14 75  1  0  0  0  0
 15 55  1  0  0  0  0
 15 59  1  0  0  0  0
 16 18  1  0  0  0  0
 16 76  1  0  0  0  0
 16 77  1  0  0  0  0
 17 60  1  0  0  0  0
 17 78  1  0  0  0  0
 18 20  1  0  0  0  0
 18 79  1  0  0  0  0
 18 80  1  0  0  0  0
 19 61  1  0  0  0  0
 19 81  1  0  0  0  0
 20 22  1  0  0  0  0
 20 82  1  0  0  0  0
 20 83  1  0  0  0  0
 21 61  1  0  0  0  0
 22 24  1  0  0  0  0
 22 84  1  0  0  0  0
 22 85  1  0  0  0  0
 23 61  1  0  0  0  0
 23 86  1  0  0  0  0
 24 25  1  0  0  0  0
 24 87  1  0  0  0  0
 24 88  1  0  0  0  0
 25 26  1  0  0  0  0
 25 89  1  0  0  0  0
 25 90  1  0  0  0  0
 26 27  1  0  0  0  0
 26 91  1  0  0  0  0
 26 92  1  0  0  0  0
 27 28  1  0  0  0  0
 27 93  1  0  0  0  0
 27 94  1  0  0  0  0
 28 29  1  0  0  0  0
 28 95  1  0  0  0  0
 28 96  1  0  0  0  0
 29 30  1  0  0  0  0
 29 97  1  0  0  0  0
 29 98  1  0  0  0  0
 30 99  1  0  0  0  0
 30100  1  0  0  0  0
 30101  1  0  0  0  0
 31 32  1  0  0  0  0
 32 33  1  0  0  0  0
 32102  1  0  0  0  0
 32103  1  0  0  0  0
 33 34  1  0  0  0  0
 33104  1  0  0  0  0
 33105  1  0  0  0  0
 34 35  1  0  0  0  0
 34106  1  0  0  0  0
 34107  1  0  0  0  0
 35 36  1  0  0  0  0
 35108  1  0  0  0  0
 35109  1  0  0  0  0
 36 37  1  0  0  0  0
 36110  1  0  0  0  0
 36111  1  0  0  0  0
 37 38  1  0  0  0  0
 37112  1  0  0  0  0
 37113  1  0  0  0  0
 38 39  1  0  0  0  0
 38114  1  0  0  0  0
 38115  1  0  0  0  0
 39 40  1  0  0  0  0
 39116  1  0  0  0  0
 39117  1  0  0  0  0
 40 41  1  0  0  0  0
 40118  1  0  0  0  0
 40119  1  0  0  0  0
 41 42  1  0  0  0  0
 41120  1  0  0  0  0
 41121  1  0  0  0  0
 42 43  1  0  0  0  0
 42122  1  0  0  0  0
 42123  1  0  0  0  0
 43 44  1  0  0  0  0
 43124  1  0  0  0  0
 43125  1  0  0  0  0
 44 45  1  0  0  0  0
 44126  1  0  0  0  0
 44127  1  0  0  0  0
 45 46  2  0  0  0  0
 45128  1  0  0  0  0
 46 47  1  0  0  0  0
 46129  1  0  0  0  0
 47 48  1  0  0  0  0
 47130  1  0  0  0  0
 47131  1  0  0  0  0
 48 49  1  0  0  0  0
 48132  1  0  0  0  0
 48133  1  0  0  0  0
 49 50  1  0  0  0  0
 49134  1  0  0  0  0
 49135  1  0  0  0  0
 50 51  1  0  0  0  0
 50136  1  0  0  0  0
 50137  1  0  0  0  0
 51 52  1  0  0  0  0
 51138  1  0  0  0  0
 51139  1  0  0  0  0
 52 53  1  0  0  0  0
 52140  1  0  0  0  0
 52141  1  0  0  0  0
 53 54  1  0  0  0  0
 53142  1  0  0  0  0
 53143  1  0  0  0  0
 54144  1  0  0  0  0
 54145  1  0  0  0  0
 54146  1  0  0  0  0
 55 56  1  0  0  0  0
 55147  1  1  0  0  0
 56 57  1  0  0  0  0
 56148  1  6  0  0  0
 57 58  1  0  0  0  0
 57149  1  1  0  0  0
 58 59  1  0  0  0  0
 58150  1  1  0  0  0
 59 60  1  0  0  0  0
 59151  1  1  0  0  0
 60152  1  0  0  0  0
 60153  1  0  0  0  0
M  CHG  1  21  -1
M  END
$$$$