/media/chris/experiments/cd1a-new-docking/inputs/ligands/7ryn_ligand.pdb
 OpenBabel07032312553D

153153  0  0  1  0  0  0  0  0999 V2000
  -33.0340   65.1330   62.2120 N   0  0  0  0  0  0  0  0  0  0  0  0
  -32.0220   67.3480   62.3220 C   0  0  0  0  0  0  0  0  0  0  0  0
  -33.3204   67.9104   62.5424 O   0  0  0  0  0  0  0  0  0  0  0  0
  -32.1830   66.0840   61.5030 C   0  0  1  0  0  0  0  0  0  0  0  0
  -31.0548   64.2805   60.3587 O   0  0  0  0  0  0  0  0  0  0  0  0
  -30.8310   65.4230   61.1900 C   0  0  2  0  0  0  0  0  0  0  0  0
  -34.9746   65.8457   61.3210 O   0  0  0  0  0  0  0  0  0  0  0  0
  -30.1054   65.0399   62.4433 C   0  0  0  0  0  0  0  0  0  0  0  0
  -35.3151   69.8361   62.1498 O   0  0  0  0  0  0  0  0  0  0  0  0
  -28.9184   64.4680   62.4873 C   0  0  0  0  0  0  0  0  0  0  0  0
  -36.2332   71.0293   64.5551 O   0  0  0  0  0  0  0  0  0  0  0  0
  -28.2138   64.1114   63.7550 C   0  0  0  0  0  0  0  0  0  0  0  0
  -34.7894   69.6393   66.4168 O   0  0  0  0  0  0  0  0  0  0  0  0
  -27.9816   65.3501   64.6226 C   0  0  0  0  0  0  0  0  0  0  0  0
  -32.7334   68.8853   64.5507 O   0  0  0  0  0  0  0  0  0  0  0  0
  -27.1527   66.4338   63.9524 C   0  0  0  0  0  0  0  0  0  0  0  0
  -32.5661   68.6711   67.3280 O   0  0  0  0  0  0  0  0  0  0  0  0
  -26.9068   67.6575   64.8184 C   0  0  0  0  0  0  0  0  0  0  0  0
  -38.4981   71.4463   63.8454 O   0  0  0  0  0  0  0  0  0  0  0  0
  -28.1781   68.3598   65.2725 C   0  0  0  0  0  0  0  0  0  0  0  0
  -36.8651   70.3129   62.3077 O   0  5  0  0  0  0  0  0  0  0  0  0
  -29.0491   68.8484   64.1253 C   0  0  0  0  0  0  0  0  0  0  0  0
  -36.6888   72.6195   62.8416 O   0  0  0  0  0  0  0  0  0  0  0  0
  -28.3509   69.8324   63.2031 C   0  0  0  0  0  0  0  0  0  0  0  0
  -29.2196   70.3369   62.0659 C   0  0  0  0  0  0  0  0  0  0  0  0
  -30.4638   71.0783   62.5240 C   0  0  0  0  0  0  0  0  0  0  0  0
  -30.1492   72.3149   63.3452 C   0  0  0  0  0  0  0  0  0  0  0  0
  -29.3531   72.0429   64.6071 C   0  0  0  0  0  0  0  0  0  0  0  0
  -29.0764   73.3025   65.4042 C   0  0  0  0  0  0  0  0  0  0  0  0
  -30.3461   73.9903   65.8618 C   0  0  0  0  0  0  0  0  0  0  0  0
  -34.3610   65.0876   62.0665 C   0  0  0  0  0  0  0  0  0  0  0  0
  -35.0703   64.0312   62.8766 C   0  0  0  0  0  0  0  0  0  0  0  0
  -34.1128   63.2023   63.7231 C   0  0  0  0  0  0  0  0  0  0  0  0
  -33.0657   62.4820   62.8888 C   0  0  0  0  0  0  0  0  0  0  0  0
  -32.1055   61.6325   63.7046 C   0  0  0  0  0  0  0  0  0  0  0  0
  -31.0478   60.9259   62.8700 C   0  0  0  0  0  0  0  0  0  0  0  0
  -30.0937   60.0598   63.6826 C   0  0  0  0  0  0  0  0  0  0  0  0
  -30.7800   58.9330   64.4440 C   0  0  0  0  0  0  0  0  0  0  0  0
  -29.8392   58.0661   65.2769 C   0  0  0  0  0  0  0  0  0  0  0  0
  -29.0858   58.8320   66.3632 C   0  0  0  0  0  0  0  0  0  0  0  0
  -28.1269   57.9804   67.1948 C   0  0  0  0  0  0  0  0  0  0  0  0
  -27.4003   58.7693   68.2843 C   0  0  0  0  0  0  0  0  0  0  0  0
  -28.3088   59.4185   69.3282 C   0  0  0  0  0  0  0  0  0  0  0  0
  -27.5791   60.2219   70.4081 C   0  0  0  0  0  0  0  0  0  0  0  0
  -26.7859   61.3667   69.8474 C   0  0  0  0  0  0  0  0  0  0  0  0
  -27.2228   62.5999   69.6626 C   0  0  0  0  0  0  0  0  0  0  0  0
  -28.5981   63.1047   69.9785 C   0  0  0  0  0  0  0  0  0  0  0  0
  -28.7372   63.6629   71.3964 C   0  0  0  0  0  0  0  0  0  0  0  0
  -30.1421   64.1576   71.7137 C   0  0  0  0  0  0  0  0  0  0  0  0
  -31.2034   63.0672   71.6181 C   0  0  0  0  0  0  0  0  0  0  0  0
  -31.3110   62.4095   70.2471 C   0  0  0  0  0  0  0  0  0  0  0  0
  -32.3867   61.3355   70.1653 C   0  0  0  0  0  0  0  0  0  0  0  0
  -32.1953   60.1873   71.1434 C   0  0  0  0  0  0  0  0  0  0  0  0
  -33.2716   59.1273   71.0257 C   0  0  0  0  0  0  0  0  0  0  0  0
  -33.3156   69.0988   63.2783 C   0  0  2  0  0  0  0  0  0  0  0  0
  -34.7576   69.5657   63.4297 C   0  0  1  0  0  0  0  0  0  0  0  0
  -34.8089   70.8140   64.3015 C   0  0  2  0  0  0  0  0  0  0  0  0
  -34.0866   70.5888   65.6217 C   0  0  2  0  0  0  0  0  0  0  0  0
  -32.6741   70.0760   65.3523 C   0  0  1  0  0  0  0  0  0  0  0  0
  -31.9211   69.7182   66.6122 C   0  0  0  0  0  0  0  0  0  0  0  0
  -37.2005   71.2487   63.3141 S   0  0  0  0  0  0  0  0  0  0  0  0
  -32.6087   64.4935   62.8279 H   0  0  0  0  0  0  0  0  0  0  0  0
  -31.5648   67.1148   63.2609 H   0  0  0  0  0  0  0  0  0  0  0  0
  -31.4012   68.0473   61.8019 H   0  0  0  0  0  0  0  0  0  0  0  0
  -32.6374   66.3625   60.5752 H   0  0  0  0  0  0  0  0  0  0  0  0
  -31.5249   64.5525   59.5551 H   0  0  0  0  0  0  0  0  0  0  0  0
  -30.2105   66.1253   60.6735 H   0  0  0  0  0  0  0  0  0  0  0  0
  -30.5711   65.2392   63.3425 H   0  0  0  0  0  0  0  0  0  0  0  0
  -35.2768   69.0347   61.6046 H   0  0  0  0  0  0  0  0  0  0  0  0
  -28.4487   64.2543   61.5936 H   0  0  0  0  0  0  0  0  0  0  0  0
  -27.2690   63.6690   63.5172 H   0  0  0  0  0  0  0  0  0  0  0  0
  -28.8242   63.4230   64.3013 H   0  0  0  0  0  0  0  0  0  0  0  0
  -35.6873   69.9632   66.5891 H   0  0  0  0  0  0  0  0  0  0  0  0
  -27.4762   65.0448   65.5150 H   0  0  0  0  0  0  0  0  0  0  0  0
  -28.9444   65.7749   64.8161 H   0  0  0  0  0  0  0  0  0  0  0  0
  -27.6644   66.7475   63.0666 H   0  0  0  0  0  0  0  0  0  0  0  0
  -26.1940   66.0046   63.7487 H   0  0  0  0  0  0  0  0  0  0  0  0
  -32.0585   68.4665   68.1288 H   0  0  0  0  0  0  0  0  0  0  0  0
  -26.3195   68.3541   64.2575 H   0  0  0  0  0  0  0  0  0  0  0  0
  -26.4089   67.3165   65.7020 H   0  0  0  0  0  0  0  0  0  0  0  0
  -38.8534   70.5983   64.1546 H   0  0  0  0  0  0  0  0  0  0  0  0
  -27.9030   69.2032   65.8707 H   0  0  0  0  0  0  0  0  0  0  0  0
  -28.7539   67.6424   65.8190 H   0  0  0  0  0  0  0  0  0  0  0  0
  -29.9130   69.3266   64.5373 H   0  0  0  0  0  0  0  0  0  0  0  0
  -29.2983   67.9910   63.5356 H   0  0  0  0  0  0  0  0  0  0  0  0
  -36.9009   73.2912   63.5085 H   0  0  0  0  0  0  0  0  0  0  0  0
  -27.4938   69.3492   62.7827 H   0  0  0  0  0  0  0  0  0  0  0  0
  -28.0942   70.6843   63.7975 H   0  0  0  0  0  0  0  0  0  0  0  0
  -29.5252   69.4973   61.4773 H   0  0  0  0  0  0  0  0  0  0  0  0
  -28.6290   71.0350   61.5101 H   0  0  0  0  0  0  0  0  0  0  0  0
  -31.0557   70.4151   63.1197 H   0  0  0  0  0  0  0  0  0  0  0  0
  -30.9850   71.4008   61.6470 H   0  0  0  0  0  0  0  0  0  0  0  0
  -31.0738   72.7748   63.6253 H   0  0  0  0  0  0  0  0  0  0  0  0
  -29.5405   72.9437   62.7295 H   0  0  0  0  0  0  0  0  0  0  0  0
  -28.4190   71.5981   64.3339 H   0  0  0  0  0  0  0  0  0  0  0  0
  -29.9354   71.3904   65.2235 H   0  0  0  0  0  0  0  0  0  0  0  0
  -28.5204   73.9810   64.7916 H   0  0  0  0  0  0  0  0  0  0  0  0
  -28.5268   73.0202   66.2778 H   0  0  0  0  0  0  0  0  0  0  0  0
  -30.9194   74.2856   65.0080 H   0  0  0  0  0  0  0  0  0  0  0  0
  -30.0949   74.8553   66.4393 H   0  0  0  0  0  0  0  0  0  0  0  0
  -30.9209   73.3157   66.4614 H   0  0  0  0  0  0  0  0  0  0  0  0
  -35.5902   63.3777   62.2076 H   0  0  0  0  0  0  0  0  0  0  0  0
  -35.7431   64.5303   63.5424 H   0  0  0  0  0  0  0  0  0  0  0  0
  -34.6784   62.4739   64.2657 H   0  0  0  0  0  0  0  0  0  0  0  0
  -33.5982   63.8727   64.3793 H   0  0  0  0  0  0  0  0  0  0  0  0
  -32.4972   63.2151   62.3556 H   0  0  0  0  0  0  0  0  0  0  0  0
  -33.5921   61.8164   62.2370 H   0  0  0  0  0  0  0  0  0  0  0  0
  -32.6725   60.8913   64.2281 H   0  0  0  0  0  0  0  0  0  0  0  0
  -31.5880   62.2958   64.3658 H   0  0  0  0  0  0  0  0  0  0  0  0
  -30.4735   61.6682   62.3561 H   0  0  0  0  0  0  0  0  0  0  0  0
  -31.5673   60.2712   62.2019 H   0  0  0  0  0  0  0  0  0  0  0  0
  -29.5894   60.6855   64.3890 H   0  0  0  0  0  0  0  0  0  0  0  0
  -29.4221   59.6010   62.9874 H   0  0  0  0  0  0  0  0  0  0  0  0
  -31.2744   58.3030   63.7344 H   0  0  0  0  0  0  0  0  0  0  0  0
  -31.4544   59.3980   65.1324 H   0  0  0  0  0  0  0  0  0  0  0  0
  -29.1215   57.6214   64.6197 H   0  0  0  0  0  0  0  0  0  0  0  0
  -30.4473   57.3404   65.7753 H   0  0  0  0  0  0  0  0  0  0  0  0
  -29.8055   59.2666   67.0251 H   0  0  0  0  0  0  0  0  0  0  0  0
  -28.4850   59.5600   65.8593 H   0  0  0  0  0  0  0  0  0  0  0  0
  -27.3956   57.5556   66.5393 H   0  0  0  0  0  0  0  0  0  0  0  0
  -28.7143   57.2328   67.6857 H   0  0  0  0  0  0  0  0  0  0  0  0
  -26.8331   59.5433   67.8109 H   0  0  0  0  0  0  0  0  0  0  0  0
  -26.7964   58.0617   68.8128 H   0  0  0  0  0  0  0  0  0  0  0  0
  -28.8671   58.6437   69.8108 H   0  0  0  0  0  0  0  0  0  0  0  0
  -28.9230   60.1166   68.7987 H   0  0  0  0  0  0  0  0  0  0  0  0
  -26.9123   59.5670   70.9290 H   0  0  0  0  0  0  0  0  0  0  0  0
  -28.3216   60.6337   71.0593 H   0  0  0  0  0  0  0  0  0  0  0  0
  -25.8079   61.1722   69.5814 H   0  0  0  0  0  0  0  0  0  0  0  0
  -26.5552   63.2783   69.2637 H   0  0  0  0  0  0  0  0  0  0  0  0
  -29.2894   62.2961   69.8643 H   0  0  0  0  0  0  0  0  0  0  0  0
  -28.7981   63.9108   69.3039 H   0  0  0  0  0  0  0  0  0  0  0  0
  -28.0559   64.4804   71.5081 H   0  0  0  0  0  0  0  0  0  0  0  0
  -28.5220   62.8634   72.0743 H   0  0  0  0  0  0  0  0  0  0  0  0
  -30.3919   64.9356   71.0229 H   0  0  0  0  0  0  0  0  0  0  0  0
  -30.1344   64.5033   72.7262 H   0  0  0  0  0  0  0  0  0  0  0  0
  -32.1518   63.5019   71.8559 H   0  0  0  0  0  0  0  0  0  0  0  0
  -30.9127   62.2982   72.3030 H   0  0  0  0  0  0  0  0  0  0  0  0
  -30.3681   61.9615   70.0126 H   0  0  0  0  0  0  0  0  0  0  0  0
  -31.5828   63.1772   69.5530 H   0  0  0  0  0  0  0  0  0  0  0  0
  -32.3863   60.9350   69.1731 H   0  0  0  0  0  0  0  0  0  0  0  0
  -33.3125   61.8069   70.4212 H   0  0  0  0  0  0  0  0  0  0  0  0
  -32.2104   60.5803   72.1385 H   0  0  0  0  0  0  0  0  0  0  0  0
  -31.2596   59.7220   70.9134 H   0  0  0  0  0  0  0  0  0  0  0  0
  -34.2242   59.5599   71.2500 H   0  0  0  0  0  0  0  0  0  0  0  0
  -33.0685   58.3347   71.7153 H   0  0  0  0  0  0  0  0  0  0  0  0
  -33.2821   58.7388   70.0288 H   0  0  0  0  0  0  0  0  0  0  0  0
  -32.7377   69.8438   62.7723 H   0  0  0  0  0  0  0  0  0  0  0  0
  -35.3300   68.7932   63.8992 H   0  0  0  0  0  0  0  0  0  0  0  0
  -34.3360   71.6474   63.8253 H   0  0  0  0  0  0  0  0  0  0  0  0
  -34.0399   71.5181   66.1499 H   0  0  0  0  0  0  0  0  0  0  0  0
  -32.1619   70.8745   64.8573 H   0  0  0  0  0  0  0  0  0  0  0  0
  -30.9335   69.4016   66.3486 H   0  0  0  0  0  0  0  0  0  0  0  0
  -31.8897   70.5836   67.2407 H   0  0  0  0  0  0  0  0  0  0  0  0
  1  4  1  0  0  0  0
  1 31  1  0  0  0  0
  1 62  1  0  0  0  0
  2  3  1  0  0  0  0
  2  4  1  0  0  0  0
  2 63  1  0  0  0  0
  2 64  1  0  0  0  0
  3 55  1  0  0  0  0
  4  6  1  0  0  0  0
  4 65  1  6  0  0  0
  5  6  1  0  0  0  0
  5 66  1  0  0  0  0
  6  8  1  0  0  0  0
  6 67  1  6  0  0  0
  7 31  2  0  0  0  0
  8 10  2  0  0  0  0
  8 68  1  0  0  0  0
  9 56  1  0  0  0  0
  9 69  1  0  0  0  0
 10 12  1  0  0  0  0
 10 70  1  0  0  0  0
 11 57  1  0  0  0  0
 11 61  1  0  0  0  0
 12 14  1  0  0  0  0
 12 71  1  0  0  0  0
 12 72  1  0  0  0  0
 13 58  1  0  0  0  0
 13 73  1  0  0  0  0
 14 16  1  0  0  0  0
 14 74  1  0  0  0  0
 14 75  1  0  0  0  0
 15 55  1  0  0  0  0
 15 59  1  0  0  0  0
 16 18  1  0  0  0  0
 16 76  1  0  0  0  0
 16 77  1  0  0  0  0
 17 60  1  0  0  0  0
 17 78  1  0  0  0  0
 18 20  1  0  0  0  0
 18 79  1  0  0  0  0
 18 80  1  0  0  0  0
 19 61  1  0  0  0  0
 19 81  1  0  0  0  0
 20 22  1  0  0  0  0
 20 82  1  0  0  0  0
 20 83  1  0  0  0  0
 21 61  1  0  0  0  0
 22 24  1  0  0  0  0
 22 84  1  0  0  0  0
 22 85  1  0  0  0  0
 23 61  1  0  0  0  0
 23 86  1  0  0  0  0
 24 25  1  0  0  0  0
 24 87  1  0  0  0  0
 24 88  1  0  0  0  0
 25 26  1  0  0  0  0
 25 89  1  0  0  0  0
 25 90  1  0  0  0  0
 26 27  1  0  0  0  0
 26 91  1  0  0  0  0
 26 92  1  0  0  0  0
 27 28  1  0  0  0  0
 27 93  1  0  0  0  0
 27 94  1  0  0  0  0
 28 29  1  0  0  0  0
 28 95  1  0  0  0  0
 28 96  1  0  0  0  0
 29 30  1  0  0  0  0
 29 97  1  0  0  0  0
 29 98  1  0  0  0  0
 30 99  1  0  0  0  0
 30100  1  0  0  0  0
 30101  1  0  0  0  0
 31 32  1  0  0  0  0
 32 33  1  0  0  0  0
 32102  1  0  0  0  0
 32103  1  0  0  0  0
 33 34  1  0  0  0  0
 33104  1  0  0  0  0
 33105  1  0  0  0  0
 34 35  1  0  0  0  0
 34106  1  0  0  0  0
 34107  1  0  0  0  0
 35 36  1  0  0  0  0
 35108  1  0  0  0  0
 35109  1  0  0  0  0
 36 37  1  0  0  0  0
 36110  1  0  0  0  0
 36111  1  0  0  0  0
 37 38  1  0  0  0  0
 37112  1  0  0  0  0
 37113  1  0  0  0  0
 38 39  1  0  0  0  0
 38114  1  0  0  0  0
 38115  1  0  0  0  0
 39 40  1  0  0  0  0
 39116  1  0  0  0  0
 39117  1  0  0  0  0
 40 41  1  0  0  0  0
 40118  1  0  0  0  0
 40119  1  0  0  0  0
 41 42  1  0  0  0  0
 41120  1  0  0  0  0
 41121  1  0  0  0  0
 42 43  1  0  0  0  0
 42122  1  0  0  0  0
 42123  1  0  0  0  0
 43 44  1  0  0  0  0
 43124  1  0  0  0  0
 43125  1  0  0  0  0
 44 45  1  0  0  0  0
 44126  1  0  0  0  0
 44127  1  0  0  0  0
 45 46  2  0  0  0  0
 45128  1  0  0  0  0
 46 47  1  0  0  0  0
 46129  1  0  0  0  0
 47 48  1  0  0  0  0
 47130  1  0  0  0  0
 47131  1  0  0  0  0
 48 49  1  0  0  0  0
 48132  1  0  0  0  0
 48133  1  0  0  0  0
 49 50  1  0  0  0  0
 49134  1  0  0  0  0
 49135  1  0  0  0  0
 50 51  1  0  0  0  0
 50136  1  0  0  0  0
 50137  1  0  0  0  0
 51 52  1  0  0  0  0
 51138  1  0  0  0  0
 51139  1  0  0  0  0
 52 53  1  0  0  0  0
 52140  1  0  0  0  0
 52141  1  0  0  0  0
 53 54  1  0  0  0  0
 53142  1  0  0  0  0
 53143  1  0  0  0  0
 54144  1  0  0  0  0
 54145  1  0  0  0  0
 54146  1  0  0  0  0
 55 56  1  0  0  0  0
 55147  1  6  0  0  0
 56 57  1  0  0  0  0
 56148  1  1  0  0  0
 57 58  1  0  0  0  0
 57149  1  6  0  0  0
 58 59  1  0  0  0  0
 58150  1  1  0  0  0
 59 60  1  0  0  0  0
 59151  1  6  0  0  0
 60152  1  0  0  0  0
 60153  1  0  0  0  0
M  CHG  1  21  -1
M  END
$$$$