/media/chris/experiments/cd1a-new-docking/inputs/ligands/4x6d_1_ligand.pdb
 OpenBabel07012320263D

 56 55  0  0  0  0  0  0  0  0999 V2000
  -42.7270   63.3070   68.7374 C   0  0  0  0  0  0  0  0  0  0  0  0
  -42.0854   62.2420   68.5484 O   0  0  0  0  0  0  0  0  0  0  0  0
  -44.0073   63.5705   67.9688 C   0  0  0  0  0  0  0  0  0  0  0  0
  -42.3006   64.1473   69.5711 O   0  0  0  0  0  0  0  0  0  0  0  0
  -45.1978   63.0275   68.7525 C   0  0  0  0  0  0  0  0  0  0  0  0
  -46.4998   63.2592   68.0020 C   0  0  0  0  0  0  0  0  0  0  0  0
  -46.4849   62.5519   66.6541 C   0  0  0  0  0  0  0  0  0  0  0  0
  -46.3218   61.0478   66.8512 C   0  0  0  0  0  0  0  0  0  0  0  0
  -46.2869   60.3217   65.5183 C   0  0  0  0  0  0  0  0  0  0  0  0
  -46.1420   58.8190   65.6970 C   0  0  0  0  0  0  0  0  0  0  0  0
  -47.3380   58.3370   66.4800 C   0  0  0  0  0  0  0  0  0  0  0  0
  -48.6910   58.5200   65.9370 C   0  0  0  0  0  0  0  0  0  0  0  0
  -49.8970   58.0544   66.7220 C   0  0  0  0  0  0  0  0  0  0  0  0
  -49.8087   56.5516   66.9851 C   0  0  0  0  0  0  0  0  0  0  0  0
  -51.0045   56.0056   67.7608 C   0  0  0  0  0  0  0  0  0  0  0  0
  -50.8702   54.5025   68.0189 C   0  0  0  0  0  0  0  0  0  0  0  0
  -52.0421   53.8713   68.7804 C   0  0  0  0  0  0  0  0  0  0  0  0
  -52.2488   54.5119   70.1593 C   0  0  0  0  0  0  0  0  0  0  0  0
  -51.0157   54.3887   71.0582 C   0  0  0  0  0  0  0  0  0  0  0  0
  -49.7706   55.0730   70.4811 C   0  0  0  0  0  0  0  0  0  0  0  0
  -43.9569   63.0850   67.0166 H   0  0  0  0  0  0  0  0  0  0  0  0
  -44.1261   64.6246   67.8286 H   0  0  0  0  0  0  0  0  0  0  0  0
  -42.7730   64.9432   69.7175 H   0  0  0  0  0  0  0  0  0  0  0  0
  -45.2476   63.5227   69.6997 H   0  0  0  0  0  0  0  0  0  0  0  0
  -45.0651   61.9740   68.8850 H   0  0  0  0  0  0  0  0  0  0  0  0
  -46.6310   64.3095   67.8448 H   0  0  0  0  0  0  0  0  0  0  0  0
  -47.3050   62.8644   68.5857 H   0  0  0  0  0  0  0  0  0  0  0  0
  -45.6691   62.9224   66.0693 H   0  0  0  0  0  0  0  0  0  0  0  0
  -47.4099   62.7402   66.1503 H   0  0  0  0  0  0  0  0  0  0  0  0
  -47.1446   60.6799   67.4280 H   0  0  0  0  0  0  0  0  0  0  0  0
  -45.3969   60.8702   67.3590 H   0  0  0  0  0  0  0  0  0  0  0  0
  -45.4571   60.6841   64.9482 H   0  0  0  0  0  0  0  0  0  0  0  0
  -47.2116   60.5087   65.0136 H   0  0  0  0  0  0  0  0  0  0  0  0
  -45.2422   58.6001   66.2331 H   0  0  0  0  0  0  0  0  0  0  0  0
  -46.0923   58.3300   64.7466 H   0  0  0  0  0  0  0  0  0  0  0  0
  -47.3129   58.8400   67.4241 H   0  0  0  0  0  0  0  0  0  0  0  0
  -47.2164   57.2740   66.4873 H   0  0  0  0  0  0  0  0  0  0  0  0
  -48.7179   58.0067   64.9986 H   0  0  0  0  0  0  0  0  0  0  0  0
  -48.8057   59.5838   65.9236 H   0  0  0  0  0  0  0  0  0  0  0  0
  -50.7849   58.2635   66.1626 H   0  0  0  0  0  0  0  0  0  0  0  0
  -49.9244   58.5714   67.6584 H   0  0  0  0  0  0  0  0  0  0  0  0
  -48.9202   56.3566   67.5485 H   0  0  0  0  0  0  0  0  0  0  0  0
  -49.7968   56.0624   66.0336 H   0  0  0  0  0  0  0  0  0  0  0  0
  -51.8954   56.1826   67.1952 H   0  0  0  0  0  0  0  0  0  0  0  0
  -51.0465   56.5051   68.7062 H   0  0  0  0  0  0  0  0  0  0  0  0
  -49.9785   54.3413   68.5880 H   0  0  0  0  0  0  0  0  0  0  0  0
  -50.8494   54.0334   67.0574 H   0  0  0  0  0  0  0  0  0  0  0  0
  -51.8460   52.8275   68.9111 H   0  0  0  0  0  0  0  0  0  0  0  0
  -52.9311   54.0314   68.2069 H   0  0  0  0  0  0  0  0  0  0  0  0
  -53.0733   54.0291   70.6410 H   0  0  0  0  0  0  0  0  0  0  0  0
  -52.4351   55.5544   70.0070 H   0  0  0  0  0  0  0  0  0  0  0  0
  -50.7987   53.3500   71.1958 H   0  0  0  0  0  0  0  0  0  0  0  0
  -51.2469   54.8793   71.9805 H   0  0  0  0  0  0  0  0  0  0  0  0
  -49.5059   54.6090   69.5540 H   0  0  0  0  0  0  0  0  0  0  0  0
  -48.9590   54.9781   71.1720 H   0  0  0  0  0  0  0  0  0  0  0  0
  -49.9780   56.1095   70.3148 H   0  0  0  0  0  0  0  0  0  0  0  0
  1  2  2  0  0  0  0
  1  3  1  0  0  0  0
  1  4  1  0  0  0  0
  3  5  1  0  0  0  0
  3 21  1  0  0  0  0
  3 22  1  0  0  0  0
  4 23  1  0  0  0  0
  5  6  1  0  0  0  0
  5 24  1  0  0  0  0
  5 25  1  0  0  0  0
  6  7  1  0  0  0  0
  6 26  1  0  0  0  0
  6 27  1  0  0  0  0
  7  8  1  0  0  0  0
  7 28  1  0  0  0  0
  7 29  1  0  0  0  0
  8  9  1  0  0  0  0
  8 30  1  0  0  0  0
  8 31  1  0  0  0  0
  9 10  1  0  0  0  0
  9 32  1  0  0  0  0
  9 33  1  0  0  0  0
 10 11  1  0  0  0  0
 10 34  1  0  0  0  0
 10 35  1  0  0  0  0
 11 12  1  0  0  0  0
 11 36  1  0  0  0  0
 11 37  1  0  0  0  0
 12 13  1  0  0  0  0
 12 38  1  0  0  0  0
 12 39  1  0  0  0  0
 13 14  1  0  0  0  0
 13 40  1  0  0  0  0
 13 41  1  0  0  0  0
 14 15  1  0  0  0  0
 14 42  1  0  0  0  0
 14 43  1  0  0  0  0
 15 16  1  0  0  0  0
 15 44  1  0  0  0  0
 15 45  1  0  0  0  0
 16 17  1  0  0  0  0
 16 46  1  0  0  0  0
 16 47  1  0  0  0  0
 17 18  1  0  0  0  0
 17 48  1  0  0  0  0
 17 49  1  0  0  0  0
 18 19  1  0  0  0  0
 18 50  1  0  0  0  0
 18 51  1  0  0  0  0
 19 20  1  0  0  0  0
 19 52  1  0  0  0  0
 19 53  1  0  0  0  0
 20 54  1  0  0  0  0
 20 55  1  0  0  0  0
 20 56  1  0  0  0  0
M  END
$$$$