/media/chris/experiments/cd1a-new-docking/inputs/ligands/4x6d_1_ligand.pdb
 OpenBabel07012320263D

 56 55  0  0  0  0  0  0  0  0999 V2000
  -40.0419   59.1523   70.9844 C   0  0  0  0  0  0  0  0  0  0  0  0
  -40.1284   58.5151   72.0652 O   0  0  0  0  0  0  0  0  0  0  0  0
  -41.2944   59.4985   70.2030 C   0  0  0  0  0  0  0  0  0  0  0  0
  -38.9102   59.5030   70.5610 O   0  0  0  0  0  0  0  0  0  0  0  0
  -41.2241   58.8696   68.8152 C   0  0  0  0  0  0  0  0  0  0  0  0
  -42.4586   59.2109   67.9956 C   0  0  0  0  0  0  0  0  0  0  0  0
  -42.3927   58.5673   66.6176 C   0  0  0  0  0  0  0  0  0  0  0  0
  -43.6307   58.9356   65.8055 C   0  0  0  0  0  0  0  0  0  0  0  0
  -44.8989   58.4750   66.5016 C   0  0  0  0  0  0  0  0  0  0  0  0
  -46.1420   58.8190   65.6970 C   0  0  0  0  0  0  0  0  0  0  0  0
  -47.3380   58.3370   66.4800 C   0  0  0  0  0  0  0  0  0  0  0  0
  -48.6910   58.5200   65.9370 C   0  0  0  0  0  0  0  0  0  0  0  0
  -49.2055   59.9072   65.6232 C   0  0  0  0  0  0  0  0  0  0  0  0
  -49.1970   60.7719   66.8833 C   0  0  0  0  0  0  0  0  0  0  0  0
  -49.7212   62.1856   66.6460 C   0  0  0  0  0  0  0  0  0  0  0  0
  -49.6805   63.0241   67.9264 C   0  0  0  0  0  0  0  0  0  0  0  0
  -50.2076   64.4563   67.7768 C   0  0  0  0  0  0  0  0  0  0  0  0
  -51.6779   64.4894   67.3391 C   0  0  0  0  0  0  0  0  0  0  0  0
  -52.6084   63.8051   68.3438 C   0  0  0  0  0  0  0  0  0  0  0  0
  -52.5891   64.4553   69.7325 C   0  0  0  0  0  0  0  0  0  0  0  0
  -41.3723   60.5614   70.1084 H   0  0  0  0  0  0  0  0  0  0  0  0
  -42.1511   59.1203   70.7207 H   0  0  0  0  0  0  0  0  0  0  0  0
  -38.8375   59.9781   69.7566 H   0  0  0  0  0  0  0  0  0  0  0  0
  -41.1549   57.8066   68.9165 H   0  0  0  0  0  0  0  0  0  0  0  0
  -40.3637   59.2564   68.3103 H   0  0  0  0  0  0  0  0  0  0  0  0
  -42.5214   60.2731   67.8832 H   0  0  0  0  0  0  0  0  0  0  0  0
  -43.3213   58.8367   68.5061 H   0  0  0  0  0  0  0  0  0  0  0  0
  -42.3443   57.5039   66.7259 H   0  0  0  0  0  0  0  0  0  0  0  0
  -41.5216   58.9220   66.1074 H   0  0  0  0  0  0  0  0  0  0  0  0
  -43.5700   58.4684   64.8448 H   0  0  0  0  0  0  0  0  0  0  0  0
  -43.6662   60.0003   65.7046 H   0  0  0  0  0  0  0  0  0  0  0  0
  -44.9621   58.9519   67.4573 H   0  0  0  0  0  0  0  0  0  0  0  0
  -44.8537   57.4109   66.6046 H   0  0  0  0  0  0  0  0  0  0  0  0
  -46.1077   58.3309   64.7454 H   0  0  0  0  0  0  0  0  0  0  0  0
  -46.2020   59.8741   65.5296 H   0  0  0  0  0  0  0  0  0  0  0  0
  -47.3129   58.8400   67.4241 H   0  0  0  0  0  0  0  0  0  0  0  0
  -47.2164   57.2740   66.4873 H   0  0  0  0  0  0  0  0  0  0  0  0
  -49.3680   58.0944   66.6480 H   0  0  0  0  0  0  0  0  0  0  0  0
  -48.6304   58.0595   64.9731 H   0  0  0  0  0  0  0  0  0  0  0  0
  -50.2057   59.8369   65.2497 H   0  0  0  0  0  0  0  0  0  0  0  0
  -48.5711   60.3563   64.8879 H   0  0  0  0  0  0  0  0  0  0  0  0
  -48.1917   60.8380   67.2436 H   0  0  0  0  0  0  0  0  0  0  0  0
  -49.8486   60.3061   67.5929 H   0  0  0  0  0  0  0  0  0  0  0  0
  -50.7324   62.1276   66.3009 H   0  0  0  0  0  0  0  0  0  0  0  0
  -49.0952   62.6567   65.9173 H   0  0  0  0  0  0  0  0  0  0  0  0
  -48.6642   63.0767   68.2571 H   0  0  0  0  0  0  0  0  0  0  0  0
  -50.3284   62.5371   68.6250 H   0  0  0  0  0  0  0  0  0  0  0  0
  -49.6181   64.9658   67.0434 H   0  0  0  0  0  0  0  0  0  0  0  0
  -50.1381   64.9336   68.7319 H   0  0  0  0  0  0  0  0  0  0  0  0
  -51.7658   63.9910   66.3964 H   0  0  0  0  0  0  0  0  0  0  0  0
  -51.9726   65.5159   67.2726 H   0  0  0  0  0  0  0  0  0  0  0  0
  -52.3071   62.7832   68.4436 H   0  0  0  0  0  0  0  0  0  0  0  0
  -53.6049   63.8978   67.9654 H   0  0  0  0  0  0  0  0  0  0  0  0
  -51.6052   64.3828   70.1467 H   0  0  0  0  0  0  0  0  0  0  0  0
  -53.2833   63.9512   70.3720 H   0  0  0  0  0  0  0  0  0  0  0  0
  -52.8654   65.4855   69.6479 H   0  0  0  0  0  0  0  0  0  0  0  0
  1  2  2  0  0  0  0
  1  3  1  0  0  0  0
  1  4  1  0  0  0  0
  3  5  1  0  0  0  0
  3 21  1  0  0  0  0
  3 22  1  0  0  0  0
  4 23  1  0  0  0  0
  5  6  1  0  0  0  0
  5 24  1  0  0  0  0
  5 25  1  0  0  0  0
  6  7  1  0  0  0  0
  6 26  1  0  0  0  0
  6 27  1  0  0  0  0
  7  8  1  0  0  0  0
  7 28  1  0  0  0  0
  7 29  1  0  0  0  0
  8  9  1  0  0  0  0
  8 30  1  0  0  0  0
  8 31  1  0  0  0  0
  9 10  1  0  0  0  0
  9 32  1  0  0  0  0
  9 33  1  0  0  0  0
 10 11  1  0  0  0  0
 10 34  1  0  0  0  0
 10 35  1  0  0  0  0
 11 12  1  0  0  0  0
 11 36  1  0  0  0  0
 11 37  1  0  0  0  0
 12 13  1  0  0  0  0
 12 38  1  0  0  0  0
 12 39  1  0  0  0  0
 13 14  1  0  0  0  0
 13 40  1  0  0  0  0
 13 41  1  0  0  0  0
 14 15  1  0  0  0  0
 14 42  1  0  0  0  0
 14 43  1  0  0  0  0
 15 16  1  0  0  0  0
 15 44  1  0  0  0  0
 15 45  1  0  0  0  0
 16 17  1  0  0  0  0
 16 46  1  0  0  0  0
 16 47  1  0  0  0  0
 17 18  1  0  0  0  0
 17 48  1  0  0  0  0
 17 49  1  0  0  0  0
 18 19  1  0  0  0  0
 18 50  1  0  0  0  0
 18 51  1  0  0  0  0
 19 20  1  0  0  0  0
 19 52  1  0  0  0  0
 19 53  1  0  0  0  0
 20 54  1  0  0  0  0
 20 55  1  0  0  0  0
 20 56  1  0  0  0  0
M  END
$$$$