/media/chris/experiments/cd1a-new-docking/inputs/ligands/4x6d_1_ligand.pdb
 OpenBabel07012320263D

 56 55  0  0  0  0  0  0  0  0999 V2000
  -50.2388   62.5108   68.8764 C   0  0  0  0  0  0  0  0  0  0  0  0
  -50.1037   61.5147   69.6322 O   0  0  0  0  0  0  0  0  0  0  0  0
  -49.0515   63.0403   68.0959 C   0  0  0  0  0  0  0  0  0  0  0  0
  -51.3661   63.0595   68.7705 O   0  0  0  0  0  0  0  0  0  0  0  0
  -48.9829   62.3527   66.7361 C   0  0  0  0  0  0  0  0  0  0  0  0
  -47.7916   62.8477   65.9312 C   0  0  0  0  0  0  0  0  0  0  0  0
  -46.4849   62.5519   66.6541 C   0  0  0  0  0  0  0  0  0  0  0  0
  -46.3218   61.0478   66.8512 C   0  0  0  0  0  0  0  0  0  0  0  0
  -46.2869   60.3217   65.5183 C   0  0  0  0  0  0  0  0  0  0  0  0
  -46.1420   58.8190   65.6970 C   0  0  0  0  0  0  0  0  0  0  0  0
  -47.3380   58.3370   66.4800 C   0  0  0  0  0  0  0  0  0  0  0  0
  -48.6910   58.5200   65.9370 C   0  0  0  0  0  0  0  0  0  0  0  0
  -49.0768   57.8833   64.6205 C   0  0  0  0  0  0  0  0  0  0  0  0
  -48.9503   56.3630   64.7112 C   0  0  0  0  0  0  0  0  0  0  0  0
  -49.8548   55.7468   65.7751 C   0  0  0  0  0  0  0  0  0  0  0  0
  -49.6863   54.2267   65.8464 C   0  0  0  0  0  0  0  0  0  0  0  0
  -50.5749   53.5269   66.8819 C   0  0  0  0  0  0  0  0  0  0  0  0
  -50.3191   54.0396   68.3054 C   0  0  0  0  0  0  0  0  0  0  0  0
  -50.6047   55.5363   68.4538 C   0  0  0  0  0  0  0  0  0  0  0  0
  -52.0597   55.9119   68.1481 C   0  0  0  0  0  0  0  0  0  0  0  0
  -48.1515   62.8431   68.6400 H   0  0  0  0  0  0  0  0  0  0  0  0
  -49.1619   64.0951   67.9547 H   0  0  0  0  0  0  0  0  0  0  0  0
  -51.4749   63.8020   68.2094 H   0  0  0  0  0  0  0  0  0  0  0  0
  -49.8816   62.5606   66.1939 H   0  0  0  0  0  0  0  0  0  0  0  0
  -48.8730   61.3000   66.8931 H   0  0  0  0  0  0  0  0  0  0  0  0
  -47.8808   63.9042   65.7875 H   0  0  0  0  0  0  0  0  0  0  0  0
  -47.7824   62.3411   64.9887 H   0  0  0  0  0  0  0  0  0  0  0  0
  -46.4917   63.0351   67.6087 H   0  0  0  0  0  0  0  0  0  0  0  0
  -45.6694   62.9178   66.0658 H   0  0  0  0  0  0  0  0  0  0  0  0
  -47.1446   60.6799   67.4280 H   0  0  0  0  0  0  0  0  0  0  0  0
  -45.3969   60.8702   67.3590 H   0  0  0  0  0  0  0  0  0  0  0  0
  -45.4571   60.6841   64.9482 H   0  0  0  0  0  0  0  0  0  0  0  0
  -47.2116   60.5087   65.0136 H   0  0  0  0  0  0  0  0  0  0  0  0
  -45.2422   58.6001   66.2331 H   0  0  0  0  0  0  0  0  0  0  0  0
  -46.0923   58.3300   64.7466 H   0  0  0  0  0  0  0  0  0  0  0  0
  -47.3129   58.8400   67.4241 H   0  0  0  0  0  0  0  0  0  0  0  0
  -47.2164   57.2740   66.4873 H   0  0  0  0  0  0  0  0  0  0  0  0
  -48.8369   59.5739   65.8234 H   0  0  0  0  0  0  0  0  0  0  0  0
  -49.3084   58.0076   66.6449 H   0  0  0  0  0  0  0  0  0  0  0  0
  -48.4296   58.2462   63.8495 H   0  0  0  0  0  0  0  0  0  0  0  0
  -50.0918   58.1359   64.3951 H   0  0  0  0  0  0  0  0  0  0  0  0
  -47.9351   56.1196   64.9455 H   0  0  0  0  0  0  0  0  0  0  0  0
  -49.2520   55.9619   63.7662 H   0  0  0  0  0  0  0  0  0  0  0  0
  -50.8735   55.9725   65.5379 H   0  0  0  0  0  0  0  0  0  0  0  0
  -49.5833   56.1585   66.7246 H   0  0  0  0  0  0  0  0  0  0  0  0
  -48.6654   54.0164   66.0880 H   0  0  0  0  0  0  0  0  0  0  0  0
  -49.9823   53.8466   64.8910 H   0  0  0  0  0  0  0  0  0  0  0  0
  -50.3756   52.4760   66.8531 H   0  0  0  0  0  0  0  0  0  0  0  0
  -51.5947   53.7365   66.6353 H   0  0  0  0  0  0  0  0  0  0  0  0
  -49.2942   53.8602   68.5550 H   0  0  0  0  0  0  0  0  0  0  0  0
  -50.9833   53.5170   68.9616 H   0  0  0  0  0  0  0  0  0  0  0  0
  -49.9677   56.0715   67.7809 H   0  0  0  0  0  0  0  0  0  0  0  0
  -50.4203   55.7932   69.4760 H   0  0  0  0  0  0  0  0  0  0  0  0
  -52.2844   55.6694   67.1304 H   0  0  0  0  0  0  0  0  0  0  0  0
  -52.1973   56.9616   68.3033 H   0  0  0  0  0  0  0  0  0  0  0  0
  -52.7128   55.3668   68.7972 H   0  0  0  0  0  0  0  0  0  0  0  0
  1  2  2  0  0  0  0
  1  3  1  0  0  0  0
  1  4  1  0  0  0  0
  3  5  1  0  0  0  0
  3 21  1  0  0  0  0
  3 22  1  0  0  0  0
  4 23  1  0  0  0  0
  5  6  1  0  0  0  0
  5 24  1  0  0  0  0
  5 25  1  0  0  0  0
  6  7  1  0  0  0  0
  6 26  1  0  0  0  0
  6 27  1  0  0  0  0
  7  8  1  0  0  0  0
  7 28  1  0  0  0  0
  7 29  1  0  0  0  0
  8  9  1  0  0  0  0
  8 30  1  0  0  0  0
  8 31  1  0  0  0  0
  9 10  1  0  0  0  0
  9 32  1  0  0  0  0
  9 33  1  0  0  0  0
 10 11  1  0  0  0  0
 10 34  1  0  0  0  0
 10 35  1  0  0  0  0
 11 12  1  0  0  0  0
 11 36  1  0  0  0  0
 11 37  1  0  0  0  0
 12 13  1  0  0  0  0
 12 38  1  0  0  0  0
 12 39  1  0  0  0  0
 13 14  1  0  0  0  0
 13 40  1  0  0  0  0
 13 41  1  0  0  0  0
 14 15  1  0  0  0  0
 14 42  1  0  0  0  0
 14 43  1  0  0  0  0
 15 16  1  0  0  0  0
 15 44  1  0  0  0  0
 15 45  1  0  0  0  0
 16 17  1  0  0  0  0
 16 46  1  0  0  0  0
 16 47  1  0  0  0  0
 17 18  1  0  0  0  0
 17 48  1  0  0  0  0
 17 49  1  0  0  0  0
 18 19  1  0  0  0  0
 18 50  1  0  0  0  0
 18 51  1  0  0  0  0
 19 20  1  0  0  0  0
 19 52  1  0  0  0  0
 19 53  1  0  0  0  0
 20 54  1  0  0  0  0
 20 55  1  0  0  0  0
 20 56  1  0  0  0  0
M  END
$$$$