/media/chris/experiments/cd1a-new-docking/inputs/ligands/4x6d_1_ligand.pdb
 OpenBabel07012320263D

 56 55  0  0  0  0  0  0  0  0999 V2000
  -44.7230   59.2707   70.8087 C   0  0  0  0  0  0  0  0  0  0  0  0
  -45.3867   59.9947   71.5942 O   0  0  0  0  0  0  0  0  0  0  0  0
  -43.5619   59.8580   70.0302 C   0  0  0  0  0  0  0  0  0  0  0  0
  -45.0276   58.0569   70.6786 O   0  0  0  0  0  0  0  0  0  0  0  0
  -43.8172   61.3384   69.7662 C   0  0  0  0  0  0  0  0  0  0  0  0
  -45.0998   61.5408   68.9749 C   0  0  0  0  0  0  0  0  0  0  0  0
  -45.0340   60.8182   67.6366 C   0  0  0  0  0  0  0  0  0  0  0  0
  -46.3218   61.0478   66.8512 C   0  0  0  0  0  0  0  0  0  0  0  0
  -46.2869   60.3217   65.5183 C   0  0  0  0  0  0  0  0  0  0  0  0
  -46.1420   58.8190   65.6970 C   0  0  0  0  0  0  0  0  0  0  0  0
  -47.3380   58.3370   66.4800 C   0  0  0  0  0  0  0  0  0  0  0  0
  -48.6910   58.5200   65.9370 C   0  0  0  0  0  0  0  0  0  0  0  0
  -49.0768   57.8833   64.6205 C   0  0  0  0  0  0  0  0  0  0  0  0
  -48.9503   56.3630   64.7112 C   0  0  0  0  0  0  0  0  0  0  0  0
  -49.8548   55.7468   65.7751 C   0  0  0  0  0  0  0  0  0  0  0  0
  -51.3327   56.0272   65.4896 C   0  0  0  0  0  0  0  0  0  0  0  0
  -51.8502   55.4682   64.1587 C   0  0  0  0  0  0  0  0  0  0  0  0
  -53.3306   55.7992   63.9282 C   0  0  0  0  0  0  0  0  0  0  0  0
  -53.5980   57.3058   63.8803 C   0  0  0  0  0  0  0  0  0  0  0  0
  -55.0759   57.6556   63.6677 C   0  0  0  0  0  0  0  0  0  0  0  0
  -43.4616   59.3425   69.0980 H   0  0  0  0  0  0  0  0  0  0  0  0
  -42.6624   59.7493   70.5992 H   0  0  0  0  0  0  0  0  0  0  0  0
  -44.5380   57.5109   70.0953 H   0  0  0  0  0  0  0  0  0  0  0  0
  -42.9964   61.7406   69.2100 H   0  0  0  0  0  0  0  0  0  0  0  0
  -43.9159   61.8390   70.7067 H   0  0  0  0  0  0  0  0  0  0  0  0
  -45.2425   62.5870   68.8012 H   0  0  0  0  0  0  0  0  0  0  0  0
  -45.9157   61.1402   69.5393 H   0  0  0  0  0  0  0  0  0  0  0  0
  -44.9058   59.7697   67.8068 H   0  0  0  0  0  0  0  0  0  0  0  0
  -44.2083   61.2000   67.0733 H   0  0  0  0  0  0  0  0  0  0  0  0
  -46.4412   62.0964   66.6748 H   0  0  0  0  0  0  0  0  0  0  0  0
  -47.1414   60.6668   67.4241 H   0  0  0  0  0  0  0  0  0  0  0  0
  -45.4571   60.6841   64.9482 H   0  0  0  0  0  0  0  0  0  0  0  0
  -47.2116   60.5087   65.0136 H   0  0  0  0  0  0  0  0  0  0  0  0
  -45.2422   58.6001   66.2331 H   0  0  0  0  0  0  0  0  0  0  0  0
  -46.0923   58.3300   64.7466 H   0  0  0  0  0  0  0  0  0  0  0  0
  -47.3129   58.8400   67.4241 H   0  0  0  0  0  0  0  0  0  0  0  0
  -47.2164   57.2740   66.4873 H   0  0  0  0  0  0  0  0  0  0  0  0
  -48.8369   59.5739   65.8234 H   0  0  0  0  0  0  0  0  0  0  0  0
  -49.3084   58.0076   66.6449 H   0  0  0  0  0  0  0  0  0  0  0  0
  -48.4296   58.2462   63.8495 H   0  0  0  0  0  0  0  0  0  0  0  0
  -50.0918   58.1359   64.3951 H   0  0  0  0  0  0  0  0  0  0  0  0
  -47.9351   56.1196   64.9455 H   0  0  0  0  0  0  0  0  0  0  0  0
  -49.2520   55.9619   63.7662 H   0  0  0  0  0  0  0  0  0  0  0  0
  -49.6008   56.1603   66.7287 H   0  0  0  0  0  0  0  0  0  0  0  0
  -49.7075   54.6870   65.7666 H   0  0  0  0  0  0  0  0  0  0  0  0
  -51.4745   57.0877   65.4824 H   0  0  0  0  0  0  0  0  0  0  0  0
  -51.8865   55.5312   66.2592 H   0  0  0  0  0  0  0  0  0  0  0  0
  -51.7311   54.4049   64.1619 H   0  0  0  0  0  0  0  0  0  0  0  0
  -51.2856   55.9206   63.3704 H   0  0  0  0  0  0  0  0  0  0  0  0
  -53.9045   55.3747   64.7253 H   0  0  0  0  0  0  0  0  0  0  0  0
  -53.6094   55.3909   62.9793 H   0  0  0  0  0  0  0  0  0  0  0  0
  -53.0310   57.7255   63.0758 H   0  0  0  0  0  0  0  0  0  0  0  0
  -53.3118   57.7078   64.8297 H   0  0  0  0  0  0  0  0  0  0  0  0
  -55.4018   57.2692   62.7246 H   0  0  0  0  0  0  0  0  0  0  0  0
  -55.1959   58.7188   63.6782 H   0  0  0  0  0  0  0  0  0  0  0  0
  -55.6613   57.2228   64.4519 H   0  0  0  0  0  0  0  0  0  0  0  0
  1  2  2  0  0  0  0
  1  3  1  0  0  0  0
  1  4  1  0  0  0  0
  3  5  1  0  0  0  0
  3 21  1  0  0  0  0
  3 22  1  0  0  0  0
  4 23  1  0  0  0  0
  5  6  1  0  0  0  0
  5 24  1  0  0  0  0
  5 25  1  0  0  0  0
  6  7  1  0  0  0  0
  6 26  1  0  0  0  0
  6 27  1  0  0  0  0
  7  8  1  0  0  0  0
  7 28  1  0  0  0  0
  7 29  1  0  0  0  0
  8  9  1  0  0  0  0
  8 30  1  0  0  0  0
  8 31  1  0  0  0  0
  9 10  1  0  0  0  0
  9 32  1  0  0  0  0
  9 33  1  0  0  0  0
 10 11  1  0  0  0  0
 10 34  1  0  0  0  0
 10 35  1  0  0  0  0
 11 12  1  0  0  0  0
 11 36  1  0  0  0  0
 11 37  1  0  0  0  0
 12 13  1  0  0  0  0
 12 38  1  0  0  0  0
 12 39  1  0  0  0  0
 13 14  1  0  0  0  0
 13 40  1  0  0  0  0
 13 41  1  0  0  0  0
 14 15  1  0  0  0  0
 14 42  1  0  0  0  0
 14 43  1  0  0  0  0
 15 16  1  0  0  0  0
 15 44  1  0  0  0  0
 15 45  1  0  0  0  0
 16 17  1  0  0  0  0
 16 46  1  0  0  0  0
 16 47  1  0  0  0  0
 17 18  1  0  0  0  0
 17 48  1  0  0  0  0
 17 49  1  0  0  0  0
 18 19  1  0  0  0  0
 18 50  1  0  0  0  0
 18 51  1  0  0  0  0
 19 20  1  0  0  0  0
 19 52  1  0  0  0  0
 19 53  1  0  0  0  0
 20 54  1  0  0  0  0
 20 55  1  0  0  0  0
 20 56  1  0  0  0  0
M  END
$$$$