/media/chris/experiments/cd1a-new-docking/inputs/ligands/4x6d_1_ligand.pdb
 OpenBabel07012320263D

 56 55  0  0  0  0  0  0  0  0999 V2000
  -42.7745   62.3973   60.2852 C   0  0  0  0  0  0  0  0  0  0  0  0
  -43.9148   62.9277   60.2732 O   0  0  0  0  0  0  0  0  0  0  0  0
  -42.6374   60.8901   60.3778 C   0  0  0  0  0  0  0  0  0  0  0  0
  -41.7515   63.1265   60.2151 O   0  0  0  0  0  0  0  0  0  0  0  0
  -43.8204   60.3133   61.1486 C   0  0  0  0  0  0  0  0  0  0  0  0
  -43.8953   60.8932   62.5523 C   0  0  0  0  0  0  0  0  0  0  0  0
  -45.0669   60.3022   63.3241 C   0  0  0  0  0  0  0  0  0  0  0  0
  -45.1351   60.9090   64.7223 C   0  0  0  0  0  0  0  0  0  0  0  0
  -46.2869   60.3217   65.5183 C   0  0  0  0  0  0  0  0  0  0  0  0
  -46.1420   58.8190   65.6970 C   0  0  0  0  0  0  0  0  0  0  0  0
  -47.3380   58.3370   66.4800 C   0  0  0  0  0  0  0  0  0  0  0  0
  -48.6910   58.5200   65.9370 C   0  0  0  0  0  0  0  0  0  0  0  0
  -49.8970   58.0544   66.7220 C   0  0  0  0  0  0  0  0  0  0  0  0
  -49.9684   58.7830   68.0634 C   0  0  0  0  0  0  0  0  0  0  0  0
  -50.0999   60.2968   67.9193 C   0  0  0  0  0  0  0  0  0  0  0  0
  -51.3756   60.6824   67.1656 C   0  0  0  0  0  0  0  0  0  0  0  0
  -52.6807   60.2341   67.8344 C   0  0  0  0  0  0  0  0  0  0  0  0
  -52.8559   60.8462   69.2305 C   0  0  0  0  0  0  0  0  0  0  0  0
  -52.9056   62.3761   69.2021 C   0  0  0  0  0  0  0  0  0  0  0  0
  -53.0632   63.0061   70.5913 C   0  0  0  0  0  0  0  0  0  0  0  0
  -41.7283   60.6461   60.8866 H   0  0  0  0  0  0  0  0  0  0  0  0
  -42.6199   60.4744   59.3920 H   0  0  0  0  0  0  0  0  0  0  0  0
  -40.8985   62.7389   60.2234 H   0  0  0  0  0  0  0  0  0  0  0  0
  -43.7097   59.2511   61.2149 H   0  0  0  0  0  0  0  0  0  0  0  0
  -44.7206   60.5662   60.6283 H   0  0  0  0  0  0  0  0  0  0  0  0
  -44.0188   61.9540   62.4866 H   0  0  0  0  0  0  0  0  0  0  0  0
  -42.9900   60.6529   63.0695 H   0  0  0  0  0  0  0  0  0  0  0  0
  -44.9393   59.2429   63.4042 H   0  0  0  0  0  0  0  0  0  0  0  0
  -45.9752   60.5219   62.8030 H   0  0  0  0  0  0  0  0  0  0  0  0
  -45.2725   61.9668   64.6377 H   0  0  0  0  0  0  0  0  0  0  0  0
  -44.2214   60.6878   65.2334 H   0  0  0  0  0  0  0  0  0  0  0  0
  -47.2024   60.5223   65.0020 H   0  0  0  0  0  0  0  0  0  0  0  0
  -46.2850   60.7734   66.4883 H   0  0  0  0  0  0  0  0  0  0  0  0
  -45.2422   58.6001   66.2331 H   0  0  0  0  0  0  0  0  0  0  0  0
  -46.0923   58.3300   64.7466 H   0  0  0  0  0  0  0  0  0  0  0  0
  -47.3129   58.8400   67.4241 H   0  0  0  0  0  0  0  0  0  0  0  0
  -47.2164   57.2740   66.4873 H   0  0  0  0  0  0  0  0  0  0  0  0
  -48.7179   58.0067   64.9986 H   0  0  0  0  0  0  0  0  0  0  0  0
  -48.8057   59.5838   65.9236 H   0  0  0  0  0  0  0  0  0  0  0  0
  -49.8205   57.0014   66.8956 H   0  0  0  0  0  0  0  0  0  0  0  0
  -50.7824   58.2692   66.1609 H   0  0  0  0  0  0  0  0  0  0  0  0
  -49.0759   58.5701   68.6139 H   0  0  0  0  0  0  0  0  0  0  0  0
  -50.8449   58.4344   68.5684 H   0  0  0  0  0  0  0  0  0  0  0  0
  -49.2530   60.6694   67.3818 H   0  0  0  0  0  0  0  0  0  0  0  0
  -50.1483   60.7234   68.8993 H   0  0  0  0  0  0  0  0  0  0  0  0
  -51.3326   60.2413   66.1917 H   0  0  0  0  0  0  0  0  0  0  0  0
  -51.4007   61.7519   67.1452 H   0  0  0  0  0  0  0  0  0  0  0  0
  -52.6735   59.1679   67.9240 H   0  0  0  0  0  0  0  0  0  0  0  0
  -53.4941   60.5679   67.2246 H   0  0  0  0  0  0  0  0  0  0  0  0
  -52.0336   60.5417   69.8436 H   0  0  0  0  0  0  0  0  0  0  0  0
  -53.7899   60.4995   69.6208 H   0  0  0  0  0  0  0  0  0  0  0  0
  -53.7350   62.6773   68.5970 H   0  0  0  0  0  0  0  0  0  0  0  0
  -51.9714   62.7151   68.8056 H   0  0  0  0  0  0  0  0  0  0  0  0
  -53.9897   62.6900   71.0233 H   0  0  0  0  0  0  0  0  0  0  0  0
  -53.0566   64.0724   70.5022 H   0  0  0  0  0  0  0  0  0  0  0  0
  -52.2532   62.6956   71.2178 H   0  0  0  0  0  0  0  0  0  0  0  0
  1  2  2  0  0  0  0
  1  3  1  0  0  0  0
  1  4  1  0  0  0  0
  3  5  1  0  0  0  0
  3 21  1  0  0  0  0
  3 22  1  0  0  0  0
  4 23  1  0  0  0  0
  5  6  1  0  0  0  0
  5 24  1  0  0  0  0
  5 25  1  0  0  0  0
  6  7  1  0  0  0  0
  6 26  1  0  0  0  0
  6 27  1  0  0  0  0
  7  8  1  0  0  0  0
  7 28  1  0  0  0  0
  7 29  1  0  0  0  0
  8  9  1  0  0  0  0
  8 30  1  0  0  0  0
  8 31  1  0  0  0  0
  9 10  1  0  0  0  0
  9 32  1  0  0  0  0
  9 33  1  0  0  0  0
 10 11  1  0  0  0  0
 10 34  1  0  0  0  0
 10 35  1  0  0  0  0
 11 12  1  0  0  0  0
 11 36  1  0  0  0  0
 11 37  1  0  0  0  0
 12 13  1  0  0  0  0
 12 38  1  0  0  0  0
 12 39  1  0  0  0  0
 13 14  1  0  0  0  0
 13 40  1  0  0  0  0
 13 41  1  0  0  0  0
 14 15  1  0  0  0  0
 14 42  1  0  0  0  0
 14 43  1  0  0  0  0
 15 16  1  0  0  0  0
 15 44  1  0  0  0  0
 15 45  1  0  0  0  0
 16 17  1  0  0  0  0
 16 46  1  0  0  0  0
 16 47  1  0  0  0  0
 17 18  1  0  0  0  0
 17 48  1  0  0  0  0
 17 49  1  0  0  0  0
 18 19  1  0  0  0  0
 18 50  1  0  0  0  0
 18 51  1  0  0  0  0
 19 20  1  0  0  0  0
 19 52  1  0  0  0  0
 19 53  1  0  0  0  0
 20 54  1  0  0  0  0
 20 55  1  0  0  0  0
 20 56  1  0  0  0  0
M  END
$$$$