/media/chris/experiments/cd1a-new-docking/inputs/ligands/4x6d_1_ligand.pdb
 OpenBabel07012320263D

 56 55  0  0  0  0  0  0  0  0999 V2000
  -42.2775   58.4867   61.9722 C   0  0  0  0  0  0  0  0  0  0  0  0
  -42.4185   59.2156   60.9570 O   0  0  0  0  0  0  0  0  0  0  0  0
  -42.3381   59.0950   63.3598 C   0  0  0  0  0  0  0  0  0  0  0  0
  -42.0909   57.2510   61.8264 O   0  0  0  0  0  0  0  0  0  0  0  0
  -42.5781   60.5974   63.2519 C   0  0  0  0  0  0  0  0  0  0  0  0
  -43.8953   60.8932   62.5523 C   0  0  0  0  0  0  0  0  0  0  0  0
  -45.0669   60.3022   63.3241 C   0  0  0  0  0  0  0  0  0  0  0  0
  -45.1351   60.9090   64.7223 C   0  0  0  0  0  0  0  0  0  0  0  0
  -46.2869   60.3217   65.5183 C   0  0  0  0  0  0  0  0  0  0  0  0
  -46.1420   58.8190   65.6970 C   0  0  0  0  0  0  0  0  0  0  0  0
  -47.3380   58.3370   66.4800 C   0  0  0  0  0  0  0  0  0  0  0  0
  -48.6910   58.5200   65.9370 C   0  0  0  0  0  0  0  0  0  0  0  0
  -49.2055   59.9072   65.6232 C   0  0  0  0  0  0  0  0  0  0  0  0
  -50.6357   59.8327   65.0901 C   0  0  0  0  0  0  0  0  0  0  0  0
  -51.2168   61.1986   64.7345 C   0  0  0  0  0  0  0  0  0  0  0  0
  -52.6547   61.0831   64.2213 C   0  0  0  0  0  0  0  0  0  0  0  0
  -53.3072   62.4130   63.8251 C   0  0  0  0  0  0  0  0  0  0  0  0
  -53.3634   63.4022   64.9968 C   0  0  0  0  0  0  0  0  0  0  0  0
  -54.1513   62.8581   66.1913 C   0  0  0  0  0  0  0  0  0  0  0  0
  -54.2325   63.8407   67.3658 C   0  0  0  0  0  0  0  0  0  0  0  0
  -41.4125   58.9180   63.8666 H   0  0  0  0  0  0  0  0  0  0  0  0
  -43.1395   58.6465   63.9089 H   0  0  0  0  0  0  0  0  0  0  0  0
  -41.9849   56.7013   62.5778 H   0  0  0  0  0  0  0  0  0  0  0  0
  -41.7792   61.0395   62.6940 H   0  0  0  0  0  0  0  0  0  0  0  0
  -42.6189   61.0065   64.2397 H   0  0  0  0  0  0  0  0  0  0  0  0
  -43.8732   60.4686   61.5704 H   0  0  0  0  0  0  0  0  0  0  0  0
  -44.0225   61.9542   62.4987 H   0  0  0  0  0  0  0  0  0  0  0  0
  -44.9393   59.2429   63.4042 H   0  0  0  0  0  0  0  0  0  0  0  0
  -45.9752   60.5219   62.8030 H   0  0  0  0  0  0  0  0  0  0  0  0
  -45.2725   61.9668   64.6377 H   0  0  0  0  0  0  0  0  0  0  0  0
  -44.2214   60.6878   65.2334 H   0  0  0  0  0  0  0  0  0  0  0  0
  -47.2024   60.5223   65.0020 H   0  0  0  0  0  0  0  0  0  0  0  0
  -46.2850   60.7734   66.4883 H   0  0  0  0  0  0  0  0  0  0  0  0
  -45.2422   58.6001   66.2331 H   0  0  0  0  0  0  0  0  0  0  0  0
  -46.0923   58.3300   64.7466 H   0  0  0  0  0  0  0  0  0  0  0  0
  -47.3129   58.8400   67.4241 H   0  0  0  0  0  0  0  0  0  0  0  0
  -47.2164   57.2740   66.4873 H   0  0  0  0  0  0  0  0  0  0  0  0
  -49.3680   58.0944   66.6480 H   0  0  0  0  0  0  0  0  0  0  0  0
  -48.6304   58.0595   64.9731 H   0  0  0  0  0  0  0  0  0  0  0  0
  -48.5763   60.3587   64.8849 H   0  0  0  0  0  0  0  0  0  0  0  0
  -49.1972   60.4930   66.5186 H   0  0  0  0  0  0  0  0  0  0  0  0
  -51.2548   59.3842   65.8387 H   0  0  0  0  0  0  0  0  0  0  0  0
  -50.6099   59.2542   64.1903 H   0  0  0  0  0  0  0  0  0  0  0  0
  -50.6116   61.6461   63.9740 H   0  0  0  0  0  0  0  0  0  0  0  0
  -51.2246   61.7997   65.6196 H   0  0  0  0  0  0  0  0  0  0  0  0
  -53.2482   60.6384   64.9926 H   0  0  0  0  0  0  0  0  0  0  0  0
  -52.6088   60.4937   63.3295 H   0  0  0  0  0  0  0  0  0  0  0  0
  -54.3044   62.2208   63.4882 H   0  0  0  0  0  0  0  0  0  0  0  0
  -52.7132   62.8531   63.0516 H   0  0  0  0  0  0  0  0  0  0  0  0
  -53.8302   64.3046   64.6610 H   0  0  0  0  0  0  0  0  0  0  0  0
  -52.3590   63.5743   65.3232 H   0  0  0  0  0  0  0  0  0  0  0  0
  -53.6760   61.9617   66.5312 H   0  0  0  0  0  0  0  0  0  0  0  0
  -55.1522   62.6831   65.8561 H   0  0  0  0  0  0  0  0  0  0  0  0
  -53.2471   64.0422   67.7310 H   0  0  0  0  0  0  0  0  0  0  0  0
  -54.8224   63.4124   68.1490 H   0  0  0  0  0  0  0  0  0  0  0  0
  -54.6845   64.7531   67.0370 H   0  0  0  0  0  0  0  0  0  0  0  0
  1  2  2  0  0  0  0
  1  3  1  0  0  0  0
  1  4  1  0  0  0  0
  3  5  1  0  0  0  0
  3 21  1  0  0  0  0
  3 22  1  0  0  0  0
  4 23  1  0  0  0  0
  5  6  1  0  0  0  0
  5 24  1  0  0  0  0
  5 25  1  0  0  0  0
  6  7  1  0  0  0  0
  6 26  1  0  0  0  0
  6 27  1  0  0  0  0
  7  8  1  0  0  0  0
  7 28  1  0  0  0  0
  7 29  1  0  0  0  0
  8  9  1  0  0  0  0
  8 30  1  0  0  0  0
  8 31  1  0  0  0  0
  9 10  1  0  0  0  0
  9 32  1  0  0  0  0
  9 33  1  0  0  0  0
 10 11  1  0  0  0  0
 10 34  1  0  0  0  0
 10 35  1  0  0  0  0
 11 12  1  0  0  0  0
 11 36  1  0  0  0  0
 11 37  1  0  0  0  0
 12 13  1  0  0  0  0
 12 38  1  0  0  0  0
 12 39  1  0  0  0  0
 13 14  1  0  0  0  0
 13 40  1  0  0  0  0
 13 41  1  0  0  0  0
 14 15  1  0  0  0  0
 14 42  1  0  0  0  0
 14 43  1  0  0  0  0
 15 16  1  0  0  0  0
 15 44  1  0  0  0  0
 15 45  1  0  0  0  0
 16 17  1  0  0  0  0
 16 46  1  0  0  0  0
 16 47  1  0  0  0  0
 17 18  1  0  0  0  0
 17 48  1  0  0  0  0
 17 49  1  0  0  0  0
 18 19  1  0  0  0  0
 18 50  1  0  0  0  0
 18 51  1  0  0  0  0
 19 20  1  0  0  0  0
 19 52  1  0  0  0  0
 19 53  1  0  0  0  0
 20 54  1  0  0  0  0
 20 55  1  0  0  0  0
 20 56  1  0  0  0  0
M  END
$$$$