/media/chris/experiments/cd1a-new-docking/inputs/ligands/4x6d_1_ligand.pdb
 OpenBabel07012320263D

 56 55  0  0  0  0  0  0  0  0999 V2000
  -42.5665   55.5580   60.8606 C   0  0  0  0  0  0  0  0  0  0  0  0
  -41.5136   55.2820   60.2305 O   0  0  0  0  0  0  0  0  0  0  0  0
  -43.8137   55.9817   60.1094 C   0  0  0  0  0  0  0  0  0  0  0  0
  -42.5768   55.4751   62.1160 O   0  0  0  0  0  0  0  0  0  0  0  0
  -43.8274   57.4987   59.9514 C   0  0  0  0  0  0  0  0  0  0  0  0
  -43.8027   58.1910   61.3050 C   0  0  0  0  0  0  0  0  0  0  0  0
  -45.0041   57.7845   62.1469 C   0  0  0  0  0  0  0  0  0  0  0  0
  -44.9702   58.5025   63.4927 C   0  0  0  0  0  0  0  0  0  0  0  0
  -46.1509   58.0994   64.3580 C   0  0  0  0  0  0  0  0  0  0  0  0
  -46.1420   58.8190   65.6970 C   0  0  0  0  0  0  0  0  0  0  0  0
  -47.3380   58.3370   66.4800 C   0  0  0  0  0  0  0  0  0  0  0  0
  -48.6910   58.5200   65.9370 C   0  0  0  0  0  0  0  0  0  0  0  0
  -49.2055   59.9072   65.6232 C   0  0  0  0  0  0  0  0  0  0  0  0
  -48.3233   60.5721   64.5673 C   0  0  0  0  0  0  0  0  0  0  0  0
  -48.7733   61.9865   64.2115 C   0  0  0  0  0  0  0  0  0  0  0  0
  -47.8759   62.6107   63.1396 C   0  0  0  0  0  0  0  0  0  0  0  0
  -48.2514   64.0419   62.7369 C   0  0  0  0  0  0  0  0  0  0  0  0
  -49.6804   64.1322   62.1853 C   0  0  0  0  0  0  0  0  0  0  0  0
  -50.7354   63.6951   63.2048 C   0  0  0  0  0  0  0  0  0  0  0  0
  -50.7428   64.5498   64.4780 C   0  0  0  0  0  0  0  0  0  0  0  0
  -44.6802   55.6731   60.6560 H   0  0  0  0  0  0  0  0  0  0  0  0
  -43.8175   55.5244   59.1421 H   0  0  0  0  0  0  0  0  0  0  0  0
  -43.3573   55.6791   62.5926 H   0  0  0  0  0  0  0  0  0  0  0  0
  -44.7147   57.7873   59.4276 H   0  0  0  0  0  0  0  0  0  0  0  0
  -42.9555   57.7910   59.4044 H   0  0  0  0  0  0  0  0  0  0  0  0
  -43.8216   59.2505   61.1566 H   0  0  0  0  0  0  0  0  0  0  0  0
  -42.9110   57.9009   61.8203 H   0  0  0  0  0  0  0  0  0  0  0  0
  -44.9805   56.7272   62.3094 H   0  0  0  0  0  0  0  0  0  0  0  0
  -45.9010   58.0542   61.6293 H   0  0  0  0  0  0  0  0  0  0  0  0
  -45.0038   59.5589   63.3261 H   0  0  0  0  0  0  0  0  0  0  0  0
  -44.0685   58.2299   64.0003 H   0  0  0  0  0  0  0  0  0  0  0  0
  -46.1087   57.0444   64.5316 H   0  0  0  0  0  0  0  0  0  0  0  0
  -47.0486   58.3689   63.8418 H   0  0  0  0  0  0  0  0  0  0  0  0
  -46.2076   59.8760   65.5439 H   0  0  0  0  0  0  0  0  0  0  0  0
  -45.2364   58.6137   66.2287 H   0  0  0  0  0  0  0  0  0  0  0  0
  -47.3129   58.8400   67.4241 H   0  0  0  0  0  0  0  0  0  0  0  0
  -47.2164   57.2740   66.4873 H   0  0  0  0  0  0  0  0  0  0  0  0
  -49.3680   58.0944   66.6480 H   0  0  0  0  0  0  0  0  0  0  0  0
  -48.6304   58.0595   64.9731 H   0  0  0  0  0  0  0  0  0  0  0  0
  -49.1949   60.4980   66.5153 H   0  0  0  0  0  0  0  0  0  0  0  0
  -50.2040   59.8318   65.2462 H   0  0  0  0  0  0  0  0  0  0  0  0
  -48.3461   59.9747   63.6799 H   0  0  0  0  0  0  0  0  0  0  0  0
  -47.3375   60.6457   64.9770 H   0  0  0  0  0  0  0  0  0  0  0  0
  -48.7372   62.5941   65.0916 H   0  0  0  0  0  0  0  0  0  0  0  0
  -49.7695   61.9334   63.8246 H   0  0  0  0  0  0  0  0  0  0  0  0
  -47.9251   61.9956   62.2654 H   0  0  0  0  0  0  0  0  0  0  0  0
  -46.8951   62.6657   63.5639 H   0  0  0  0  0  0  0  0  0  0  0  0
  -47.5694   64.3784   61.9842 H   0  0  0  0  0  0  0  0  0  0  0  0
  -48.1977   64.6546   63.6126 H   0  0  0  0  0  0  0  0  0  0  0  0
  -49.7552   63.5022   61.3236 H   0  0  0  0  0  0  0  0  0  0  0  0
  -49.8695   65.1572   61.9433 H   0  0  0  0  0  0  0  0  0  0  0  0
  -50.5413   62.6793   63.4794 H   0  0  0  0  0  0  0  0  0  0  0  0
  -51.6918   63.8127   62.7398 H   0  0  0  0  0  0  0  0  0  0  0  0
  -49.7992   64.4587   64.9742 H   0  0  0  0  0  0  0  0  0  0  0  0
  -51.5221   64.2129   65.1292 H   0  0  0  0  0  0  0  0  0  0  0  0
  -50.9122   65.5740   64.2191 H   0  0  0  0  0  0  0  0  0  0  0  0
  1  2  2  0  0  0  0
  1  3  1  0  0  0  0
  1  4  1  0  0  0  0
  3  5  1  0  0  0  0
  3 21  1  0  0  0  0
  3 22  1  0  0  0  0
  4 23  1  0  0  0  0
  5  6  1  0  0  0  0
  5 24  1  0  0  0  0
  5 25  1  0  0  0  0
  6  7  1  0  0  0  0
  6 26  1  0  0  0  0
  6 27  1  0  0  0  0
  7  8  1  0  0  0  0
  7 28  1  0  0  0  0
  7 29  1  0  0  0  0
  8  9  1  0  0  0  0
  8 30  1  0  0  0  0
  8 31  1  0  0  0  0
  9 10  1  0  0  0  0
  9 32  1  0  0  0  0
  9 33  1  0  0  0  0
 10 11  1  0  0  0  0
 10 34  1  0  0  0  0
 10 35  1  0  0  0  0
 11 12  1  0  0  0  0
 11 36  1  0  0  0  0
 11 37  1  0  0  0  0
 12 13  1  0  0  0  0
 12 38  1  0  0  0  0
 12 39  1  0  0  0  0
 13 14  1  0  0  0  0
 13 40  1  0  0  0  0
 13 41  1  0  0  0  0
 14 15  1  0  0  0  0
 14 42  1  0  0  0  0
 14 43  1  0  0  0  0
 15 16  1  0  0  0  0
 15 44  1  0  0  0  0
 15 45  1  0  0  0  0
 16 17  1  0  0  0  0
 16 46  1  0  0  0  0
 16 47  1  0  0  0  0
 17 18  1  0  0  0  0
 17 48  1  0  0  0  0
 17 49  1  0  0  0  0
 18 19  1  0  0  0  0
 18 50  1  0  0  0  0
 18 51  1  0  0  0  0
 19 20  1  0  0  0  0
 19 52  1  0  0  0  0
 19 53  1  0  0  0  0
 20 54  1  0  0  0  0
 20 55  1  0  0  0  0
 20 56  1  0  0  0  0
M  END
$$$$