/media/chris/experiments/cd1a-new-docking/inputs/ligands/4x6d_1_ligand.pdb
 OpenBabel07012320263D

 56 55  0  0  0  0  0  0  0  0999 V2000
  -50.2985   61.9112   64.6729 C   0  0  0  0  0  0  0  0  0  0  0  0
  -51.2862   62.0182   63.9018 O   0  0  0  0  0  0  0  0  0  0  0  0
  -50.2932   62.6317   66.0070 C   0  0  0  0  0  0  0  0  0  0  0  0
  -49.3195   61.1990   64.3301 O   0  0  0  0  0  0  0  0  0  0  0  0
  -48.9829   62.3527   66.7361 C   0  0  0  0  0  0  0  0  0  0  0  0
  -47.7916   62.8477   65.9312 C   0  0  0  0  0  0  0  0  0  0  0  0
  -46.4849   62.5519   66.6541 C   0  0  0  0  0  0  0  0  0  0  0  0
  -46.3218   61.0478   66.8512 C   0  0  0  0  0  0  0  0  0  0  0  0
  -46.2869   60.3217   65.5183 C   0  0  0  0  0  0  0  0  0  0  0  0
  -46.1420   58.8190   65.6970 C   0  0  0  0  0  0  0  0  0  0  0  0
  -47.3380   58.3370   66.4800 C   0  0  0  0  0  0  0  0  0  0  0  0
  -48.6910   58.5200   65.9370 C   0  0  0  0  0  0  0  0  0  0  0  0
  -49.8970   58.0544   66.7220 C   0  0  0  0  0  0  0  0  0  0  0  0
  -51.1790   58.3402   65.9408 C   0  0  0  0  0  0  0  0  0  0  0  0
  -52.4428   57.9111   66.6813 C   0  0  0  0  0  0  0  0  0  0  0  0
  -52.4335   56.4116   66.9900 C   0  0  0  0  0  0  0  0  0  0  0  0
  -52.3337   55.5003   65.7608 C   0  0  0  0  0  0  0  0  0  0  0  0
  -52.3468   54.0134   66.1396 C   0  0  0  0  0  0  0  0  0  0  0  0
  -52.2303   53.0930   64.9219 C   0  0  0  0  0  0  0  0  0  0  0  0
  -52.2590   51.6023   65.2803 C   0  0  0  0  0  0  0  0  0  0  0  0
  -51.1122   62.2849   66.6019 H   0  0  0  0  0  0  0  0  0  0  0  0
  -50.3899   63.6845   65.8418 H   0  0  0  0  0  0  0  0  0  0  0  0
  -48.5798   61.1143   64.8990 H   0  0  0  0  0  0  0  0  0  0  0  0
  -48.8866   61.2983   66.8903 H   0  0  0  0  0  0  0  0  0  0  0  0
  -48.9986   62.8702   67.6726 H   0  0  0  0  0  0  0  0  0  0  0  0
  -47.8808   63.9042   65.7875 H   0  0  0  0  0  0  0  0  0  0  0  0
  -47.7824   62.3411   64.9887 H   0  0  0  0  0  0  0  0  0  0  0  0
  -46.4917   63.0351   67.6087 H   0  0  0  0  0  0  0  0  0  0  0  0
  -45.6694   62.9178   66.0658 H   0  0  0  0  0  0  0  0  0  0  0  0
  -47.1446   60.6799   67.4280 H   0  0  0  0  0  0  0  0  0  0  0  0
  -45.3969   60.8702   67.3590 H   0  0  0  0  0  0  0  0  0  0  0  0
  -45.4571   60.6841   64.9482 H   0  0  0  0  0  0  0  0  0  0  0  0
  -47.2116   60.5087   65.0136 H   0  0  0  0  0  0  0  0  0  0  0  0
  -45.2422   58.6001   66.2331 H   0  0  0  0  0  0  0  0  0  0  0  0
  -46.0923   58.3300   64.7466 H   0  0  0  0  0  0  0  0  0  0  0  0
  -47.3129   58.8400   67.4241 H   0  0  0  0  0  0  0  0  0  0  0  0
  -47.2164   57.2740   66.4873 H   0  0  0  0  0  0  0  0  0  0  0  0
  -48.7179   58.0067   64.9986 H   0  0  0  0  0  0  0  0  0  0  0  0
  -48.8057   59.5838   65.9236 H   0  0  0  0  0  0  0  0  0  0  0  0
  -49.9308   58.5721   67.6578 H   0  0  0  0  0  0  0  0  0  0  0  0
  -49.8184   57.0005   66.8895 H   0  0  0  0  0  0  0  0  0  0  0  0
  -51.1348   57.8137   65.0103 H   0  0  0  0  0  0  0  0  0  0  0  0
  -51.2366   59.3994   65.8008 H   0  0  0  0  0  0  0  0  0  0  0  0
  -53.2944   58.1353   66.0735 H   0  0  0  0  0  0  0  0  0  0  0  0
  -52.4843   58.4435   67.6086 H   0  0  0  0  0  0  0  0  0  0  0  0
  -53.3389   56.1731   67.5080 H   0  0  0  0  0  0  0  0  0  0  0  0
  -51.5532   56.2300   67.5706 H   0  0  0  0  0  0  0  0  0  0  0  0
  -51.4217   55.7164   65.2446 H   0  0  0  0  0  0  0  0  0  0  0  0
  -53.1855   55.6893   65.1414 H   0  0  0  0  0  0  0  0  0  0  0  0
  -53.2643   53.7971   66.6458 H   0  0  0  0  0  0  0  0  0  0  0  0
  -51.4978   53.8315   66.7650 H   0  0  0  0  0  0  0  0  0  0  0  0
  -51.3071   53.3044   64.4240 H   0  0  0  0  0  0  0  0  0  0  0  0
  -53.0789   53.2845   64.2989 H   0  0  0  0  0  0  0  0  0  0  0  0
  -51.4225   51.3696   65.9055 H   0  0  0  0  0  0  0  0  0  0  0  0
  -52.2080   51.0191   64.3846 H   0  0  0  0  0  0  0  0  0  0  0  0
  -53.1666   51.3780   65.8007 H   0  0  0  0  0  0  0  0  0  0  0  0
  1  2  2  0  0  0  0
  1  3  1  0  0  0  0
  1  4  1  0  0  0  0
  3  5  1  0  0  0  0
  3 21  1  0  0  0  0
  3 22  1  0  0  0  0
  4 23  1  0  0  0  0
  5  6  1  0  0  0  0
  5 24  1  0  0  0  0
  5 25  1  0  0  0  0
  6  7  1  0  0  0  0
  6 26  1  0  0  0  0
  6 27  1  0  0  0  0
  7  8  1  0  0  0  0
  7 28  1  0  0  0  0
  7 29  1  0  0  0  0
  8  9  1  0  0  0  0
  8 30  1  0  0  0  0
  8 31  1  0  0  0  0
  9 10  1  0  0  0  0
  9 32  1  0  0  0  0
  9 33  1  0  0  0  0
 10 11  1  0  0  0  0
 10 34  1  0  0  0  0
 10 35  1  0  0  0  0
 11 12  1  0  0  0  0
 11 36  1  0  0  0  0
 11 37  1  0  0  0  0
 12 13  1  0  0  0  0
 12 38  1  0  0  0  0
 12 39  1  0  0  0  0
 13 14  1  0  0  0  0
 13 40  1  0  0  0  0
 13 41  1  0  0  0  0
 14 15  1  0  0  0  0
 14 42  1  0  0  0  0
 14 43  1  0  0  0  0
 15 16  1  0  0  0  0
 15 44  1  0  0  0  0
 15 45  1  0  0  0  0
 16 17  1  0  0  0  0
 16 46  1  0  0  0  0
 16 47  1  0  0  0  0
 17 18  1  0  0  0  0
 17 48  1  0  0  0  0
 17 49  1  0  0  0  0
 18 19  1  0  0  0  0
 18 50  1  0  0  0  0
 18 51  1  0  0  0  0
 19 20  1  0  0  0  0
 19 52  1  0  0  0  0
 19 53  1  0  0  0  0
 20 54  1  0  0  0  0
 20 55  1  0  0  0  0
 20 56  1  0  0  0  0
M  END
$$$$