/media/chris/experiments/cd1a-new-docking/inputs/ligands/4x6d_1_ligand.pdb
 OpenBabel07012320263D

 56 55  0  0  0  0  0  0  0  0999 V2000
  -42.9414   64.8623   65.5863 C   0  0  0  0  0  0  0  0  0  0  0  0
  -43.9441   65.4654   66.0471 O   0  0  0  0  0  0  0  0  0  0  0  0
  -42.7859   63.3695   65.8021 C   0  0  0  0  0  0  0  0  0  0  0  0
  -42.0732   65.5062   64.9423 O   0  0  0  0  0  0  0  0  0  0  0  0
  -43.9717   62.8400   66.6021 C   0  0  0  0  0  0  0  0  0  0  0  0
  -43.8404   61.3460   66.8529 C   0  0  0  0  0  0  0  0  0  0  0  0
  -45.0340   60.8182   67.6366 C   0  0  0  0  0  0  0  0  0  0  0  0
  -46.3218   61.0478   66.8512 C   0  0  0  0  0  0  0  0  0  0  0  0
  -46.2869   60.3217   65.5183 C   0  0  0  0  0  0  0  0  0  0  0  0
  -46.1420   58.8190   65.6970 C   0  0  0  0  0  0  0  0  0  0  0  0
  -47.3380   58.3370   66.4800 C   0  0  0  0  0  0  0  0  0  0  0  0
  -48.6910   58.5200   65.9370 C   0  0  0  0  0  0  0  0  0  0  0  0
  -49.8970   58.0544   66.7220 C   0  0  0  0  0  0  0  0  0  0  0  0
  -49.9684   58.7830   68.0634 C   0  0  0  0  0  0  0  0  0  0  0  0
  -48.7344   58.5620   68.9341 C   0  0  0  0  0  0  0  0  0  0  0  0
  -48.8519   59.2931   70.2742 C   0  0  0  0  0  0  0  0  0  0  0  0
  -47.6423   59.1355   71.2035 C   0  0  0  0  0  0  0  0  0  0  0  0
  -47.8331   59.8774   72.5331 C   0  0  0  0  0  0  0  0  0  0  0  0
  -48.0563   61.3801   72.3437 C   0  0  0  0  0  0  0  0  0  0  0  0
  -48.2319   62.1408   73.6636 C   0  0  0  0  0  0  0  0  0  0  0  0
  -41.8807   63.1802   66.3402 H   0  0  0  0  0  0  0  0  0  0  0  0
  -42.7496   62.8760   64.8534 H   0  0  0  0  0  0  0  0  0  0  0  0
  -41.3233   65.0641   64.5958 H   0  0  0  0  0  0  0  0  0  0  0  0
  -44.8726   63.0247   66.0552 H   0  0  0  0  0  0  0  0  0  0  0  0
  -43.9952   63.3421   67.5468 H   0  0  0  0  0  0  0  0  0  0  0  0
  -42.9462   61.1620   67.4109 H   0  0  0  0  0  0  0  0  0  0  0  0
  -43.8029   60.8436   65.9089 H   0  0  0  0  0  0  0  0  0  0  0  0
  -45.0957   61.3299   68.5743 H   0  0  0  0  0  0  0  0  0  0  0  0
  -44.9075   59.7686   67.8014 H   0  0  0  0  0  0  0  0  0  0  0  0
  -46.4412   62.0964   66.6748 H   0  0  0  0  0  0  0  0  0  0  0  0
  -47.1414   60.6668   67.4241 H   0  0  0  0  0  0  0  0  0  0  0  0
  -45.4571   60.6841   64.9482 H   0  0  0  0  0  0  0  0  0  0  0  0
  -47.2116   60.5087   65.0136 H   0  0  0  0  0  0  0  0  0  0  0  0
  -45.2422   58.6001   66.2331 H   0  0  0  0  0  0  0  0  0  0  0  0
  -46.0923   58.3300   64.7466 H   0  0  0  0  0  0  0  0  0  0  0  0
  -47.3129   58.8400   67.4241 H   0  0  0  0  0  0  0  0  0  0  0  0
  -47.2164   57.2740   66.4873 H   0  0  0  0  0  0  0  0  0  0  0  0
  -48.7179   58.0067   64.9986 H   0  0  0  0  0  0  0  0  0  0  0  0
  -48.8057   59.5838   65.9236 H   0  0  0  0  0  0  0  0  0  0  0  0
  -49.8205   57.0014   66.8956 H   0  0  0  0  0  0  0  0  0  0  0  0
  -50.7824   58.2692   66.1609 H   0  0  0  0  0  0  0  0  0  0  0  0
  -50.8275   58.4319   68.5958 H   0  0  0  0  0  0  0  0  0  0  0  0
  -50.0259   59.8307   67.8535 H   0  0  0  0  0  0  0  0  0  0  0  0
  -47.8729   58.9261   68.4144 H   0  0  0  0  0  0  0  0  0  0  0  0
  -48.6472   57.5139   69.1312 H   0  0  0  0  0  0  0  0  0  0  0  0
  -49.7140   58.9164   70.7839 H   0  0  0  0  0  0  0  0  0  0  0  0
  -48.9188   60.3356   70.0427 H   0  0  0  0  0  0  0  0  0  0  0  0
  -46.7764   59.5268   70.7116 H   0  0  0  0  0  0  0  0  0  0  0  0
  -47.5288   58.0941   71.4216 H   0  0  0  0  0  0  0  0  0  0  0  0
  -46.9592   59.7341   73.1336 H   0  0  0  0  0  0  0  0  0  0  0  0
  -48.7066   59.4775   73.0042 H   0  0  0  0  0  0  0  0  0  0  0  0
  -48.9366   61.5202   71.7517 H   0  0  0  0  0  0  0  0  0  0  0  0
  -47.1819   61.7717   71.8673 H   0  0  0  0  0  0  0  0  0  0  0  0
  -49.0998   61.7767   74.1724 H   0  0  0  0  0  0  0  0  0  0  0  0
  -48.3492   63.1848   73.4606 H   0  0  0  0  0  0  0  0  0  0  0  0
  -47.3691   61.9918   74.2786 H   0  0  0  0  0  0  0  0  0  0  0  0
  1  2  2  0  0  0  0
  1  3  1  0  0  0  0
  1  4  1  0  0  0  0
  3  5  1  0  0  0  0
  3 21  1  0  0  0  0
  3 22  1  0  0  0  0
  4 23  1  0  0  0  0
  5  6  1  0  0  0  0
  5 24  1  0  0  0  0
  5 25  1  0  0  0  0
  6  7  1  0  0  0  0
  6 26  1  0  0  0  0
  6 27  1  0  0  0  0
  7  8  1  0  0  0  0
  7 28  1  0  0  0  0
  7 29  1  0  0  0  0
  8  9  1  0  0  0  0
  8 30  1  0  0  0  0
  8 31  1  0  0  0  0
  9 10  1  0  0  0  0
  9 32  1  0  0  0  0
  9 33  1  0  0  0  0
 10 11  1  0  0  0  0
 10 34  1  0  0  0  0
 10 35  1  0  0  0  0
 11 12  1  0  0  0  0
 11 36  1  0  0  0  0
 11 37  1  0  0  0  0
 12 13  1  0  0  0  0
 12 38  1  0  0  0  0
 12 39  1  0  0  0  0
 13 14  1  0  0  0  0
 13 40  1  0  0  0  0
 13 41  1  0  0  0  0
 14 15  1  0  0  0  0
 14 42  1  0  0  0  0
 14 43  1  0  0  0  0
 15 16  1  0  0  0  0
 15 44  1  0  0  0  0
 15 45  1  0  0  0  0
 16 17  1  0  0  0  0
 16 46  1  0  0  0  0
 16 47  1  0  0  0  0
 17 18  1  0  0  0  0
 17 48  1  0  0  0  0
 17 49  1  0  0  0  0
 18 19  1  0  0  0  0
 18 50  1  0  0  0  0
 18 51  1  0  0  0  0
 19 20  1  0  0  0  0
 19 52  1  0  0  0  0
 19 53  1  0  0  0  0
 20 54  1  0  0  0  0
 20 55  1  0  0  0  0
 20 56  1  0  0  0  0
M  END
$$$$