/media/chris/experiments/cd1a-new-docking/inputs/ligands/4x6d_1_ligand.pdb
 OpenBabel07012320263D

 56 55  0  0  0  0  0  0  0  0999 V2000
  -42.4509   55.5945   60.8864 C   0  0  0  0  0  0  0  0  0  0  0  0
  -43.3672   54.7684   60.6421 O   0  0  0  0  0  0  0  0  0  0  0  0
  -42.4096   56.3122   62.2214 C   0  0  0  0  0  0  0  0  0  0  0  0
  -41.5686   55.8158   60.0170 O   0  0  0  0  0  0  0  0  0  0  0  0
  -42.5015   57.8182   61.9978 C   0  0  0  0  0  0  0  0  0  0  0  0
  -43.8027   58.1910   61.3050 C   0  0  0  0  0  0  0  0  0  0  0  0
  -45.0041   57.7845   62.1469 C   0  0  0  0  0  0  0  0  0  0  0  0
  -44.9702   58.5025   63.4927 C   0  0  0  0  0  0  0  0  0  0  0  0
  -46.1509   58.0994   64.3580 C   0  0  0  0  0  0  0  0  0  0  0  0
  -46.1420   58.8190   65.6970 C   0  0  0  0  0  0  0  0  0  0  0  0
  -47.3380   58.3370   66.4800 C   0  0  0  0  0  0  0  0  0  0  0  0
  -48.6910   58.5200   65.9370 C   0  0  0  0  0  0  0  0  0  0  0  0
  -49.0768   57.8833   64.6205 C   0  0  0  0  0  0  0  0  0  0  0  0
  -48.9503   56.3630   64.7112 C   0  0  0  0  0  0  0  0  0  0  0  0
  -49.3083   55.6511   63.4094 C   0  0  0  0  0  0  0  0  0  0  0  0
  -49.1860   54.1311   63.5462 C   0  0  0  0  0  0  0  0  0  0  0  0
  -49.5129   53.3402   62.2737 C   0  0  0  0  0  0  0  0  0  0  0  0
  -49.3875   51.8256   62.4851 C   0  0  0  0  0  0  0  0  0  0  0  0
  -49.6948   51.0253   61.2167 C   0  0  0  0  0  0  0  0  0  0  0  0
  -49.5910   49.5080   61.4139 C   0  0  0  0  0  0  0  0  0  0  0  0
  -41.4917   56.0821   62.7208 H   0  0  0  0  0  0  0  0  0  0  0  0
  -43.2352   55.9919   62.8219 H   0  0  0  0  0  0  0  0  0  0  0  0
  -40.8827   56.4298   60.1914 H   0  0  0  0  0  0  0  0  0  0  0  0
  -41.6793   58.1318   61.3891 H   0  0  0  0  0  0  0  0  0  0  0  0
  -42.4721   58.3053   62.9501 H   0  0  0  0  0  0  0  0  0  0  0  0
  -43.8520   57.6911   60.3602 H   0  0  0  0  0  0  0  0  0  0  0  0
  -43.8248   59.2521   61.1687 H   0  0  0  0  0  0  0  0  0  0  0  0
  -44.9805   56.7272   62.3094 H   0  0  0  0  0  0  0  0  0  0  0  0
  -45.9010   58.0542   61.6293 H   0  0  0  0  0  0  0  0  0  0  0  0
  -45.0038   59.5589   63.3261 H   0  0  0  0  0  0  0  0  0  0  0  0
  -44.0685   58.2299   64.0003 H   0  0  0  0  0  0  0  0  0  0  0  0
  -46.1087   57.0444   64.5316 H   0  0  0  0  0  0  0  0  0  0  0  0
  -47.0486   58.3689   63.8418 H   0  0  0  0  0  0  0  0  0  0  0  0
  -46.2076   59.8760   65.5439 H   0  0  0  0  0  0  0  0  0  0  0  0
  -45.2364   58.6137   66.2287 H   0  0  0  0  0  0  0  0  0  0  0  0
  -47.3129   58.8400   67.4241 H   0  0  0  0  0  0  0  0  0  0  0  0
  -47.2164   57.2740   66.4873 H   0  0  0  0  0  0  0  0  0  0  0  0
  -48.8369   59.5739   65.8234 H   0  0  0  0  0  0  0  0  0  0  0  0
  -49.3084   58.0076   66.6449 H   0  0  0  0  0  0  0  0  0  0  0  0
  -48.4296   58.2462   63.8495 H   0  0  0  0  0  0  0  0  0  0  0  0
  -50.0918   58.1359   64.3951 H   0  0  0  0  0  0  0  0  0  0  0  0
  -49.6051   56.0127   65.4816 H   0  0  0  0  0  0  0  0  0  0  0  0
  -47.9253   56.1413   64.9233 H   0  0  0  0  0  0  0  0  0  0  0  0
  -48.6463   55.9847   62.6378 H   0  0  0  0  0  0  0  0  0  0  0  0
  -50.3244   55.8847   63.1686 H   0  0  0  0  0  0  0  0  0  0  0  0
  -49.8555   53.8117   64.3173 H   0  0  0  0  0  0  0  0  0  0  0  0
  -48.1585   53.9313   63.7682 H   0  0  0  0  0  0  0  0  0  0  0  0
  -48.8365   53.6375   61.4998 H   0  0  0  0  0  0  0  0  0  0  0  0
  -50.5272   53.5520   62.0066 H   0  0  0  0  0  0  0  0  0  0  0  0
  -50.0726   51.5289   63.2515 H   0  0  0  0  0  0  0  0  0  0  0  0
  -48.3739   51.6202   62.7595 H   0  0  0  0  0  0  0  0  0  0  0  0
  -49.0014   51.3166   60.4556 H   0  0  0  0  0  0  0  0  0  0  0  0
  -50.7072   51.2400   60.9452 H   0  0  0  0  0  0  0  0  0  0  0  0
  -48.5889   49.2516   61.6875 H   0  0  0  0  0  0  0  0  0  0  0  0
  -49.8499   49.0114   60.5022 H   0  0  0  0  0  0  0  0  0  0  0  0
  -50.2618   49.2024   62.1894 H   0  0  0  0  0  0  0  0  0  0  0  0
  1  2  2  0  0  0  0
  1  3  1  0  0  0  0
  1  4  1  0  0  0  0
  3  5  1  0  0  0  0
  3 21  1  0  0  0  0
  3 22  1  0  0  0  0
  4 23  1  0  0  0  0
  5  6  1  0  0  0  0
  5 24  1  0  0  0  0
  5 25  1  0  0  0  0
  6  7  1  0  0  0  0
  6 26  1  0  0  0  0
  6 27  1  0  0  0  0
  7  8  1  0  0  0  0
  7 28  1  0  0  0  0
  7 29  1  0  0  0  0
  8  9  1  0  0  0  0
  8 30  1  0  0  0  0
  8 31  1  0  0  0  0
  9 10  1  0  0  0  0
  9 32  1  0  0  0  0
  9 33  1  0  0  0  0
 10 11  1  0  0  0  0
 10 34  1  0  0  0  0
 10 35  1  0  0  0  0
 11 12  1  0  0  0  0
 11 36  1  0  0  0  0
 11 37  1  0  0  0  0
 12 13  1  0  0  0  0
 12 38  1  0  0  0  0
 12 39  1  0  0  0  0
 13 14  1  0  0  0  0
 13 40  1  0  0  0  0
 13 41  1  0  0  0  0
 14 15  1  0  0  0  0
 14 42  1  0  0  0  0
 14 43  1  0  0  0  0
 15 16  1  0  0  0  0
 15 44  1  0  0  0  0
 15 45  1  0  0  0  0
 16 17  1  0  0  0  0
 16 46  1  0  0  0  0
 16 47  1  0  0  0  0
 17 18  1  0  0  0  0
 17 48  1  0  0  0  0
 17 49  1  0  0  0  0
 18 19  1  0  0  0  0
 18 50  1  0  0  0  0
 18 51  1  0  0  0  0
 19 20  1  0  0  0  0
 19 52  1  0  0  0  0
 19 53  1  0  0  0  0
 20 54  1  0  0  0  0
 20 55  1  0  0  0  0
 20 56  1  0  0  0  0
M  END
$$$$