/media/chris/experiments/cd1a-new-docking/inputs/ligands/4x6d_1_ligand.pdb
 OpenBabel07012320263D

 56 55  0  0  0  0  0  0  0  0999 V2000
  -41.9777   55.7126   61.2120 C   0  0  0  0  0  0  0  0  0  0  0  0
  -41.9222   54.4567   61.1783 O   0  0  0  0  0  0  0  0  0  0  0  0
  -42.0560   56.4353   62.5427 C   0  0  0  0  0  0  0  0  0  0  0  0
  -41.9631   56.3623   60.1346 O   0  0  0  0  0  0  0  0  0  0  0  0
  -43.3000   55.9828   63.3004 C   0  0  0  0  0  0  0  0  0  0  0  0
  -43.4205   56.7013   64.6351 C   0  0  0  0  0  0  0  0  0  0  0  0
  -44.6536   56.2343   65.3959 C   0  0  0  0  0  0  0  0  0  0  0  0
  -44.7660   56.9788   66.7229 C   0  0  0  0  0  0  0  0  0  0  0  0
  -44.8989   58.4750   66.5016 C   0  0  0  0  0  0  0  0  0  0  0  0
  -46.1420   58.8190   65.6970 C   0  0  0  0  0  0  0  0  0  0  0  0
  -47.3380   58.3370   66.4800 C   0  0  0  0  0  0  0  0  0  0  0  0
  -48.6910   58.5200   65.9370 C   0  0  0  0  0  0  0  0  0  0  0  0
  -49.8970   58.0544   66.7220 C   0  0  0  0  0  0  0  0  0  0  0  0
  -51.1790   58.3402   65.9408 C   0  0  0  0  0  0  0  0  0  0  0  0
  -51.3738   59.8209   65.6257 C   0  0  0  0  0  0  0  0  0  0  0  0
  -52.6757   60.0674   64.8587 C   0  0  0  0  0  0  0  0  0  0  0  0
  -53.9509   59.6501   65.6012 C   0  0  0  0  0  0  0  0  0  0  0  0
  -53.9536   58.1566   65.9531 C   0  0  0  0  0  0  0  0  0  0  0  0
  -55.2296   57.7237   66.6797 C   0  0  0  0  0  0  0  0  0  0  0  0
  -55.4655   58.4744   67.9960 C   0  0  0  0  0  0  0  0  0  0  0  0
  -42.1076   57.4904   62.3721 H   0  0  0  0  0  0  0  0  0  0  0  0
  -41.1856   56.2073   63.1218 H   0  0  0  0  0  0  0  0  0  0  0  0
  -42.0041   57.2983   60.1514 H   0  0  0  0  0  0  0  0  0  0  0  0
  -43.2385   54.9289   63.4753 H   0  0  0  0  0  0  0  0  0  0  0  0
  -44.1611   56.2167   62.7099 H   0  0  0  0  0  0  0  0  0  0  0  0
  -43.4949   57.7543   64.4603 H   0  0  0  0  0  0  0  0  0  0  0  0
  -42.5534   56.4793   65.2216 H   0  0  0  0  0  0  0  0  0  0  0  0
  -44.5758   55.1841   65.5851 H   0  0  0  0  0  0  0  0  0  0  0  0
  -45.5244   56.4354   64.8074 H   0  0  0  0  0  0  0  0  0  0  0  0
  -43.8890   56.7884   67.3056 H   0  0  0  0  0  0  0  0  0  0  0  0
  -45.6400   56.6322   67.2337 H   0  0  0  0  0  0  0  0  0  0  0  0
  -44.0367   58.8248   65.9732 H   0  0  0  0  0  0  0  0  0  0  0  0
  -44.9814   58.9465   67.4585 H   0  0  0  0  0  0  0  0  0  0  0  0
  -46.1077   58.3309   64.7454 H   0  0  0  0  0  0  0  0  0  0  0  0
  -46.2020   59.8741   65.5296 H   0  0  0  0  0  0  0  0  0  0  0  0
  -47.3129   58.8400   67.4241 H   0  0  0  0  0  0  0  0  0  0  0  0
  -47.2164   57.2740   66.4873 H   0  0  0  0  0  0  0  0  0  0  0  0
  -48.7179   58.0067   64.9986 H   0  0  0  0  0  0  0  0  0  0  0  0
  -48.8057   59.5838   65.9236 H   0  0  0  0  0  0  0  0  0  0  0  0
  -49.9308   58.5721   67.6578 H   0  0  0  0  0  0  0  0  0  0  0  0
  -49.8184   57.0005   66.8895 H   0  0  0  0  0  0  0  0  0  0  0  0
  -52.0128   58.0033   66.5206 H   0  0  0  0  0  0  0  0  0  0  0  0
  -51.1040   57.8236   65.0067 H   0  0  0  0  0  0  0  0  0  0  0  0
  -50.5512   60.1607   65.0318 H   0  0  0  0  0  0  0  0  0  0  0  0
  -51.4239   60.3561   66.5509 H   0  0  0  0  0  0  0  0  0  0  0  0
  -52.6303   59.5183   63.9415 H   0  0  0  0  0  0  0  0  0  0  0  0
  -52.7442   61.1256   64.7158 H   0  0  0  0  0  0  0  0  0  0  0  0
  -54.7960   59.8591   64.9790 H   0  0  0  0  0  0  0  0  0  0  0  0
  -53.9948   60.2035   66.5159 H   0  0  0  0  0  0  0  0  0  0  0  0
  -53.1140   57.9521   66.5842 H   0  0  0  0  0  0  0  0  0  0  0  0
  -53.9017   57.6081   65.0359 H   0  0  0  0  0  0  0  0  0  0  0  0
  -55.1598   56.6776   66.8936 H   0  0  0  0  0  0  0  0  0  0  0  0
  -56.0527   57.9506   66.0348 H   0  0  0  0  0  0  0  0  0  0  0  0
  -54.6602   58.2725   68.6709 H   0  0  0  0  0  0  0  0  0  0  0  0
  -56.3866   58.1486   68.4322 H   0  0  0  0  0  0  0  0  0  0  0  0
  -55.5142   59.5257   67.8032 H   0  0  0  0  0  0  0  0  0  0  0  0
  1  2  2  0  0  0  0
  1  3  1  0  0  0  0
  1  4  1  0  0  0  0
  3  5  1  0  0  0  0
  3 21  1  0  0  0  0
  3 22  1  0  0  0  0
  4 23  1  0  0  0  0
  5  6  1  0  0  0  0
  5 24  1  0  0  0  0
  5 25  1  0  0  0  0
  6  7  1  0  0  0  0
  6 26  1  0  0  0  0
  6 27  1  0  0  0  0
  7  8  1  0  0  0  0
  7 28  1  0  0  0  0
  7 29  1  0  0  0  0
  8  9  1  0  0  0  0
  8 30  1  0  0  0  0
  8 31  1  0  0  0  0
  9 10  1  0  0  0  0
  9 32  1  0  0  0  0
  9 33  1  0  0  0  0
 10 11  1  0  0  0  0
 10 34  1  0  0  0  0
 10 35  1  0  0  0  0
 11 12  1  0  0  0  0
 11 36  1  0  0  0  0
 11 37  1  0  0  0  0
 12 13  1  0  0  0  0
 12 38  1  0  0  0  0
 12 39  1  0  0  0  0
 13 14  1  0  0  0  0
 13 40  1  0  0  0  0
 13 41  1  0  0  0  0
 14 15  1  0  0  0  0
 14 42  1  0  0  0  0
 14 43  1  0  0  0  0
 15 16  1  0  0  0  0
 15 44  1  0  0  0  0
 15 45  1  0  0  0  0
 16 17  1  0  0  0  0
 16 46  1  0  0  0  0
 16 47  1  0  0  0  0
 17 18  1  0  0  0  0
 17 48  1  0  0  0  0
 17 49  1  0  0  0  0
 18 19  1  0  0  0  0
 18 50  1  0  0  0  0
 18 51  1  0  0  0  0
 19 20  1  0  0  0  0
 19 52  1  0  0  0  0
 19 53  1  0  0  0  0
 20 54  1  0  0  0  0
 20 55  1  0  0  0  0
 20 56  1  0  0  0  0
M  END
$$$$