/media/chris/experiments/cd1a-new-docking/inputs/ligands/4x6d_1_ligand.pdb
 OpenBabel07012320263D

 56 55  0  0  0  0  0  0  0  0999 V2000
  -42.8395   63.4003   68.6714 C   0  0  0  0  0  0  0  0  0  0  0  0
  -42.1707   62.3626   68.4315 O   0  0  0  0  0  0  0  0  0  0  0  0
  -44.1577   63.6370   67.9604 C   0  0  0  0  0  0  0  0  0  0  0  0
  -42.4083   64.2356   69.5077 O   0  0  0  0  0  0  0  0  0  0  0  0
  -45.2969   63.0356   68.7771 C   0  0  0  0  0  0  0  0  0  0  0  0
  -45.0998   61.5408   68.9749 C   0  0  0  0  0  0  0  0  0  0  0  0
  -45.0340   60.8182   67.6366 C   0  0  0  0  0  0  0  0  0  0  0  0
  -46.3218   61.0478   66.8512 C   0  0  0  0  0  0  0  0  0  0  0  0
  -46.2869   60.3217   65.5183 C   0  0  0  0  0  0  0  0  0  0  0  0
  -46.1420   58.8190   65.6970 C   0  0  0  0  0  0  0  0  0  0  0  0
  -47.3380   58.3370   66.4800 C   0  0  0  0  0  0  0  0  0  0  0  0
  -48.6910   58.5200   65.9370 C   0  0  0  0  0  0  0  0  0  0  0  0
  -49.8970   58.0544   66.7220 C   0  0  0  0  0  0  0  0  0  0  0  0
  -49.9684   58.7830   68.0634 C   0  0  0  0  0  0  0  0  0  0  0  0
  -50.0999   60.2968   67.9193 C   0  0  0  0  0  0  0  0  0  0  0  0
  -51.3756   60.6824   67.1656 C   0  0  0  0  0  0  0  0  0  0  0  0
  -52.6807   60.2341   67.8344 C   0  0  0  0  0  0  0  0  0  0  0  0
  -53.9170   60.6369   67.0196 C   0  0  0  0  0  0  0  0  0  0  0  0
  -53.9300   60.0154   65.6206 C   0  0  0  0  0  0  0  0  0  0  0  0
  -55.1504   60.4209   64.7853 C   0  0  0  0  0  0  0  0  0  0  0  0
  -44.1294   63.1755   66.9955 H   0  0  0  0  0  0  0  0  0  0  0  0
  -44.3173   64.6893   67.8506 H   0  0  0  0  0  0  0  0  0  0  0  0
  -42.9008   65.0111   69.6919 H   0  0  0  0  0  0  0  0  0  0  0  0
  -46.2206   63.2011   68.2630 H   0  0  0  0  0  0  0  0  0  0  0  0
  -45.3112   63.5062   69.7379 H   0  0  0  0  0  0  0  0  0  0  0  0
  -45.9189   61.1519   69.5429 H   0  0  0  0  0  0  0  0  0  0  0  0
  -44.1768   61.3840   69.4930 H   0  0  0  0  0  0  0  0  0  0  0  0
  -44.9058   59.7697   67.8068 H   0  0  0  0  0  0  0  0  0  0  0  0
  -44.2083   61.2000   67.0733 H   0  0  0  0  0  0  0  0  0  0  0  0
  -46.4412   62.0964   66.6748 H   0  0  0  0  0  0  0  0  0  0  0  0
  -47.1414   60.6668   67.4241 H   0  0  0  0  0  0  0  0  0  0  0  0
  -45.4571   60.6841   64.9482 H   0  0  0  0  0  0  0  0  0  0  0  0
  -47.2116   60.5087   65.0136 H   0  0  0  0  0  0  0  0  0  0  0  0
  -45.2422   58.6001   66.2331 H   0  0  0  0  0  0  0  0  0  0  0  0
  -46.0923   58.3300   64.7466 H   0  0  0  0  0  0  0  0  0  0  0  0
  -47.3129   58.8400   67.4241 H   0  0  0  0  0  0  0  0  0  0  0  0
  -47.2164   57.2740   66.4873 H   0  0  0  0  0  0  0  0  0  0  0  0
  -48.7179   58.0067   64.9986 H   0  0  0  0  0  0  0  0  0  0  0  0
  -48.8057   59.5838   65.9236 H   0  0  0  0  0  0  0  0  0  0  0  0
  -49.8205   57.0014   66.8956 H   0  0  0  0  0  0  0  0  0  0  0  0
  -50.7824   58.2692   66.1609 H   0  0  0  0  0  0  0  0  0  0  0  0
  -49.0759   58.5701   68.6139 H   0  0  0  0  0  0  0  0  0  0  0  0
  -50.8449   58.4344   68.5684 H   0  0  0  0  0  0  0  0  0  0  0  0
  -49.2530   60.6694   67.3818 H   0  0  0  0  0  0  0  0  0  0  0  0
  -50.1483   60.7234   68.8993 H   0  0  0  0  0  0  0  0  0  0  0  0
  -51.3326   60.2413   66.1917 H   0  0  0  0  0  0  0  0  0  0  0  0
  -51.4007   61.7519   67.1452 H   0  0  0  0  0  0  0  0  0  0  0  0
  -52.7443   60.6848   68.8028 H   0  0  0  0  0  0  0  0  0  0  0  0
  -52.6654   59.1664   67.9023 H   0  0  0  0  0  0  0  0  0  0  0  0
  -53.9299   61.7023   66.9211 H   0  0  0  0  0  0  0  0  0  0  0  0
  -54.7793   60.2775   67.5412 H   0  0  0  0  0  0  0  0  0  0  0  0
  -53.9276   58.9502   65.7227 H   0  0  0  0  0  0  0  0  0  0  0  0
  -53.0625   60.3744   65.1074 H   0  0  0  0  0  0  0  0  0  0  0  0
  -56.0423   60.0785   65.2673 H   0  0  0  0  0  0  0  0  0  0  0  0
  -55.0792   59.9808   63.8127 H   0  0  0  0  0  0  0  0  0  0  0  0
  -55.1814   61.4865   64.6932 H   0  0  0  0  0  0  0  0  0  0  0  0
  1  2  2  0  0  0  0
  1  3  1  0  0  0  0
  1  4  1  0  0  0  0
  3  5  1  0  0  0  0
  3 21  1  0  0  0  0
  3 22  1  0  0  0  0
  4 23  1  0  0  0  0
  5  6  1  0  0  0  0
  5 24  1  0  0  0  0
  5 25  1  0  0  0  0
  6  7  1  0  0  0  0
  6 26  1  0  0  0  0
  6 27  1  0  0  0  0
  7  8  1  0  0  0  0
  7 28  1  0  0  0  0
  7 29  1  0  0  0  0
  8  9  1  0  0  0  0
  8 30  1  0  0  0  0
  8 31  1  0  0  0  0
  9 10  1  0  0  0  0
  9 32  1  0  0  0  0
  9 33  1  0  0  0  0
 10 11  1  0  0  0  0
 10 34  1  0  0  0  0
 10 35  1  0  0  0  0
 11 12  1  0  0  0  0
 11 36  1  0  0  0  0
 11 37  1  0  0  0  0
 12 13  1  0  0  0  0
 12 38  1  0  0  0  0
 12 39  1  0  0  0  0
 13 14  1  0  0  0  0
 13 40  1  0  0  0  0
 13 41  1  0  0  0  0
 14 15  1  0  0  0  0
 14 42  1  0  0  0  0
 14 43  1  0  0  0  0
 15 16  1  0  0  0  0
 15 44  1  0  0  0  0
 15 45  1  0  0  0  0
 16 17  1  0  0  0  0
 16 46  1  0  0  0  0
 16 47  1  0  0  0  0
 17 18  1  0  0  0  0
 17 48  1  0  0  0  0
 17 49  1  0  0  0  0
 18 19  1  0  0  0  0
 18 50  1  0  0  0  0
 18 51  1  0  0  0  0
 19 20  1  0  0  0  0
 19 52  1  0  0  0  0
 19 53  1  0  0  0  0
 20 54  1  0  0  0  0
 20 55  1  0  0  0  0
 20 56  1  0  0  0  0
M  END
$$$$