/media/chris/experiments/cd1a-new-docking/inputs/ligands/4x6d_1_ligand.pdb
 OpenBabel07012320263D

 56 55  0  0  0  0  0  0  0  0999 V2000
  -43.1148   53.9696   61.9559 C   0  0  0  0  0  0  0  0  0  0  0  0
  -42.5238   52.8661   61.8345 O   0  0  0  0  0  0  0  0  0  0  0  0
  -43.2869   54.5937   63.3270 C   0  0  0  0  0  0  0  0  0  0  0  0
  -43.5568   54.5514   60.9315 O   0  0  0  0  0  0  0  0  0  0  0  0
  -43.3046   56.1136   63.2007 C   0  0  0  0  0  0  0  0  0  0  0  0
  -43.4587   56.7749   64.5613 C   0  0  0  0  0  0  0  0  0  0  0  0
  -43.4934   58.2911   64.4294 C   0  0  0  0  0  0  0  0  0  0  0  0
  -43.6307   58.9356   65.8055 C   0  0  0  0  0  0  0  0  0  0  0  0
  -44.8989   58.4750   66.5016 C   0  0  0  0  0  0  0  0  0  0  0  0
  -46.1420   58.8190   65.6970 C   0  0  0  0  0  0  0  0  0  0  0  0
  -47.3380   58.3370   66.4800 C   0  0  0  0  0  0  0  0  0  0  0  0
  -48.6910   58.5200   65.9370 C   0  0  0  0  0  0  0  0  0  0  0  0
  -49.0768   57.8833   64.6205 C   0  0  0  0  0  0  0  0  0  0  0  0
  -50.5214   58.2342   64.2666 C   0  0  0  0  0  0  0  0  0  0  0  0
  -51.5272   57.7724   65.3177 C   0  0  0  0  0  0  0  0  0  0  0  0
  -51.4736   56.2559   65.5212 C   0  0  0  0  0  0  0  0  0  0  0  0
  -50.1215   55.7171   66.0041 C   0  0  0  0  0  0  0  0  0  0  0  0
  -50.1322   54.1917   66.1705 C   0  0  0  0  0  0  0  0  0  0  0  0
  -50.4304   53.4573   64.8608 C   0  0  0  0  0  0  0  0  0  0  0  0
  -49.3995   53.7330   63.7595 C   0  0  0  0  0  0  0  0  0  0  0  0
  -42.4739   54.2985   63.9568 H   0  0  0  0  0  0  0  0  0  0  0  0
  -44.2104   54.2626   63.7540 H   0  0  0  0  0  0  0  0  0  0  0  0
  -43.9983   55.3738   61.0137 H   0  0  0  0  0  0  0  0  0  0  0  0
  -44.1245   56.4028   62.5770 H   0  0  0  0  0  0  0  0  0  0  0  0
  -42.3763   56.4297   62.7727 H   0  0  0  0  0  0  0  0  0  0  0  0
  -42.6324   56.4963   65.1815 H   0  0  0  0  0  0  0  0  0  0  0  0
  -44.3802   56.4491   64.9967 H   0  0  0  0  0  0  0  0  0  0  0  0
  -44.3272   58.5742   63.8215 H   0  0  0  0  0  0  0  0  0  0  0  0
  -42.5825   58.6236   63.9769 H   0  0  0  0  0  0  0  0  0  0  0  0
  -43.6612   59.9991   65.6916 H   0  0  0  0  0  0  0  0  0  0  0  0
  -42.7912   58.6449   66.4019 H   0  0  0  0  0  0  0  0  0  0  0  0
  -44.9621   58.9519   67.4573 H   0  0  0  0  0  0  0  0  0  0  0  0
  -44.8537   57.4109   66.6046 H   0  0  0  0  0  0  0  0  0  0  0  0
  -46.1077   58.3309   64.7454 H   0  0  0  0  0  0  0  0  0  0  0  0
  -46.2020   59.8741   65.5296 H   0  0  0  0  0  0  0  0  0  0  0  0
  -47.3129   58.8400   67.4241 H   0  0  0  0  0  0  0  0  0  0  0  0
  -47.2164   57.2740   66.4873 H   0  0  0  0  0  0  0  0  0  0  0  0
  -48.8369   59.5739   65.8234 H   0  0  0  0  0  0  0  0  0  0  0  0
  -49.3084   58.0076   66.6449 H   0  0  0  0  0  0  0  0  0  0  0  0
  -48.9808   56.8206   64.7005 H   0  0  0  0  0  0  0  0  0  0  0  0
  -48.4300   58.2521   63.8520 H   0  0  0  0  0  0  0  0  0  0  0  0
  -50.7659   57.7690   63.3345 H   0  0  0  0  0  0  0  0  0  0  0  0
  -50.5854   59.3009   64.2123 H   0  0  0  0  0  0  0  0  0  0  0  0
  -52.5117   58.0455   64.9999 H   0  0  0  0  0  0  0  0  0  0  0  0
  -51.2810   58.2436   66.2463 H   0  0  0  0  0  0  0  0  0  0  0  0
  -51.7041   55.7868   64.5875 H   0  0  0  0  0  0  0  0  0  0  0  0
  -52.1794   56.0314   66.2934 H   0  0  0  0  0  0  0  0  0  0  0  0
  -49.8890   56.1651   66.9476 H   0  0  0  0  0  0  0  0  0  0  0  0
  -49.3872   55.9621   65.2655 H   0  0  0  0  0  0  0  0  0  0  0  0
  -50.8819   53.9307   66.8878 H   0  0  0  0  0  0  0  0  0  0  0  0
  -49.1561   53.8947   66.4928 H   0  0  0  0  0  0  0  0  0  0  0  0
  -51.3927   53.7669   64.5099 H   0  0  0  0  0  0  0  0  0  0  0  0
  -50.3948   52.4088   65.0714 H   0  0  0  0  0  0  0  0  0  0  0  0
  -49.4044   54.7756   63.5193 H   0  0  0  0  0  0  0  0  0  0  0  0
  -49.6485   53.1649   62.8876 H   0  0  0  0  0  0  0  0  0  0  0  0
  -48.4263   53.4507   64.1031 H   0  0  0  0  0  0  0  0  0  0  0  0
  1  2  2  0  0  0  0
  1  3  1  0  0  0  0
  1  4  1  0  0  0  0
  3  5  1  0  0  0  0
  3 21  1  0  0  0  0
  3 22  1  0  0  0  0
  4 23  1  0  0  0  0
  5  6  1  0  0  0  0
  5 24  1  0  0  0  0
  5 25  1  0  0  0  0
  6  7  1  0  0  0  0
  6 26  1  0  0  0  0
  6 27  1  0  0  0  0
  7  8  1  0  0  0  0
  7 28  1  0  0  0  0
  7 29  1  0  0  0  0
  8  9  1  0  0  0  0
  8 30  1  0  0  0  0
  8 31  1  0  0  0  0
  9 10  1  0  0  0  0
  9 32  1  0  0  0  0
  9 33  1  0  0  0  0
 10 11  1  0  0  0  0
 10 34  1  0  0  0  0
 10 35  1  0  0  0  0
 11 12  1  0  0  0  0
 11 36  1  0  0  0  0
 11 37  1  0  0  0  0
 12 13  1  0  0  0  0
 12 38  1  0  0  0  0
 12 39  1  0  0  0  0
 13 14  1  0  0  0  0
 13 40  1  0  0  0  0
 13 41  1  0  0  0  0
 14 15  1  0  0  0  0
 14 42  1  0  0  0  0
 14 43  1  0  0  0  0
 15 16  1  0  0  0  0
 15 44  1  0  0  0  0
 15 45  1  0  0  0  0
 16 17  1  0  0  0  0
 16 46  1  0  0  0  0
 16 47  1  0  0  0  0
 17 18  1  0  0  0  0
 17 48  1  0  0  0  0
 17 49  1  0  0  0  0
 18 19  1  0  0  0  0
 18 50  1  0  0  0  0
 18 51  1  0  0  0  0
 19 20  1  0  0  0  0
 19 52  1  0  0  0  0
 19 53  1  0  0  0  0
 20 54  1  0  0  0  0
 20 55  1  0  0  0  0
 20 56  1  0  0  0  0
M  END
$$$$