/media/chris/experiments/cd1a-new-docking/inputs/ligands/4x6d_1_ligand.pdb
 OpenBabel07012320263D

 56 55  0  0  0  0  0  0  0  0999 V2000
  -45.2121   61.5915   60.0612 C   0  0  0  0  0  0  0  0  0  0  0  0
  -44.7312   62.0740   59.0041 O   0  0  0  0  0  0  0  0  0  0  0  0
  -45.0529   62.3301   61.3759 C   0  0  0  0  0  0  0  0  0  0  0  0
  -45.8288   60.4956   60.0173 O   0  0  0  0  0  0  0  0  0  0  0  0
  -43.7713   61.8768   62.0676 C   0  0  0  0  0  0  0  0  0  0  0  0
  -43.7937   60.3805   62.3372 C   0  0  0  0  0  0  0  0  0  0  0  0
  -44.9754   60.0036   63.2198 C   0  0  0  0  0  0  0  0  0  0  0  0
  -44.9702   58.5025   63.4927 C   0  0  0  0  0  0  0  0  0  0  0  0
  -46.1509   58.0994   64.3580 C   0  0  0  0  0  0  0  0  0  0  0  0
  -46.1420   58.8190   65.6970 C   0  0  0  0  0  0  0  0  0  0  0  0
  -47.3380   58.3370   66.4800 C   0  0  0  0  0  0  0  0  0  0  0  0
  -48.6910   58.5200   65.9370 C   0  0  0  0  0  0  0  0  0  0  0  0
  -49.2055   59.9072   65.6232 C   0  0  0  0  0  0  0  0  0  0  0  0
  -48.3233   60.5721   64.5673 C   0  0  0  0  0  0  0  0  0  0  0  0
  -48.7733   61.9865   64.2115 C   0  0  0  0  0  0  0  0  0  0  0  0
  -47.8759   62.6107   63.1396 C   0  0  0  0  0  0  0  0  0  0  0  0
  -48.2514   64.0419   62.7369 C   0  0  0  0  0  0  0  0  0  0  0  0
  -47.3242   64.5994   61.6489 C   0  0  0  0  0  0  0  0  0  0  0  0
  -47.3681   63.7776   60.3580 C   0  0  0  0  0  0  0  0  0  0  0  0
  -48.7587   63.7299   59.7134 C   0  0  0  0  0  0  0  0  0  0  0  0
  -45.8912   62.1189   62.0063 H   0  0  0  0  0  0  0  0  0  0  0  0
  -45.0012   63.3821   61.1875 H   0  0  0  0  0  0  0  0  0  0  0  0
  -46.1899   60.1296   60.8006 H   0  0  0  0  0  0  0  0  0  0  0  0
  -43.6729   62.3978   62.9970 H   0  0  0  0  0  0  0  0  0  0  0  0
  -42.9437   62.0937   61.4250 H   0  0  0  0  0  0  0  0  0  0  0  0
  -42.8859   60.0998   62.8291 H   0  0  0  0  0  0  0  0  0  0  0  0
  -43.8878   59.8669   61.4033 H   0  0  0  0  0  0  0  0  0  0  0  0
  -45.8858   60.2698   62.7245 H   0  0  0  0  0  0  0  0  0  0  0  0
  -44.8989   60.5282   64.1492 H   0  0  0  0  0  0  0  0  0  0  0  0
  -44.0629   58.2422   63.9966 H   0  0  0  0  0  0  0  0  0  0  0  0
  -45.0427   57.9871   62.5578 H   0  0  0  0  0  0  0  0  0  0  0  0
  -46.1087   57.0444   64.5316 H   0  0  0  0  0  0  0  0  0  0  0  0
  -47.0486   58.3689   63.8418 H   0  0  0  0  0  0  0  0  0  0  0  0
  -46.2076   59.8760   65.5439 H   0  0  0  0  0  0  0  0  0  0  0  0
  -45.2364   58.6137   66.2287 H   0  0  0  0  0  0  0  0  0  0  0  0
  -47.3129   58.8400   67.4241 H   0  0  0  0  0  0  0  0  0  0  0  0
  -47.2164   57.2740   66.4873 H   0  0  0  0  0  0  0  0  0  0  0  0
  -49.3680   58.0944   66.6480 H   0  0  0  0  0  0  0  0  0  0  0  0
  -48.6304   58.0595   64.9731 H   0  0  0  0  0  0  0  0  0  0  0  0
  -49.1949   60.4980   66.5153 H   0  0  0  0  0  0  0  0  0  0  0  0
  -50.2040   59.8318   65.2462 H   0  0  0  0  0  0  0  0  0  0  0  0
  -48.3461   59.9747   63.6799 H   0  0  0  0  0  0  0  0  0  0  0  0
  -47.3375   60.6457   64.9770 H   0  0  0  0  0  0  0  0  0  0  0  0
  -48.7372   62.5941   65.0916 H   0  0  0  0  0  0  0  0  0  0  0  0
  -49.7695   61.9334   63.8246 H   0  0  0  0  0  0  0  0  0  0  0  0
  -47.9251   61.9956   62.2654 H   0  0  0  0  0  0  0  0  0  0  0  0
  -46.8951   62.6657   63.5639 H   0  0  0  0  0  0  0  0  0  0  0  0
  -48.1871   64.6709   63.6001 H   0  0  0  0  0  0  0  0  0  0  0  0
  -49.2460   64.0223   62.3429 H   0  0  0  0  0  0  0  0  0  0  0  0
  -46.3209   64.5994   62.0209 H   0  0  0  0  0  0  0  0  0  0  0  0
  -47.6588   65.5883   61.4143 H   0  0  0  0  0  0  0  0  0  0  0  0
  -47.0639   62.7767   60.5827 H   0  0  0  0  0  0  0  0  0  0  0  0
  -46.7120   64.2525   59.6588 H   0  0  0  0  0  0  0  0  0  0  0  0
  -49.4470   63.2599   60.3845 H   0  0  0  0  0  0  0  0  0  0  0  0
  -48.7106   63.1706   58.8025 H   0  0  0  0  0  0  0  0  0  0  0  0
  -49.0889   64.7258   59.5035 H   0  0  0  0  0  0  0  0  0  0  0  0
  1  2  2  0  0  0  0
  1  3  1  0  0  0  0
  1  4  1  0  0  0  0
  3  5  1  0  0  0  0
  3 21  1  0  0  0  0
  3 22  1  0  0  0  0
  4 23  1  0  0  0  0
  5  6  1  0  0  0  0
  5 24  1  0  0  0  0
  5 25  1  0  0  0  0
  6  7  1  0  0  0  0
  6 26  1  0  0  0  0
  6 27  1  0  0  0  0
  7  8  1  0  0  0  0
  7 28  1  0  0  0  0
  7 29  1  0  0  0  0
  8  9  1  0  0  0  0
  8 30  1  0  0  0  0
  8 31  1  0  0  0  0
  9 10  1  0  0  0  0
  9 32  1  0  0  0  0
  9 33  1  0  0  0  0
 10 11  1  0  0  0  0
 10 34  1  0  0  0  0
 10 35  1  0  0  0  0
 11 12  1  0  0  0  0
 11 36  1  0  0  0  0
 11 37  1  0  0  0  0
 12 13  1  0  0  0  0
 12 38  1  0  0  0  0
 12 39  1  0  0  0  0
 13 14  1  0  0  0  0
 13 40  1  0  0  0  0
 13 41  1  0  0  0  0
 14 15  1  0  0  0  0
 14 42  1  0  0  0  0
 14 43  1  0  0  0  0
 15 16  1  0  0  0  0
 15 44  1  0  0  0  0
 15 45  1  0  0  0  0
 16 17  1  0  0  0  0
 16 46  1  0  0  0  0
 16 47  1  0  0  0  0
 17 18  1  0  0  0  0
 17 48  1  0  0  0  0
 17 49  1  0  0  0  0
 18 19  1  0  0  0  0
 18 50  1  0  0  0  0
 18 51  1  0  0  0  0
 19 20  1  0  0  0  0
 19 52  1  0  0  0  0
 19 53  1  0  0  0  0
 20 54  1  0  0  0  0
 20 55  1  0  0  0  0
 20 56  1  0  0  0  0
M  END
$$$$