/media/chris/experiments/cd1a-new-docking/inputs/ligands/4x6d_1_ligand.pdb
 OpenBabel07012320263D

 56 55  0  0  0  0  0  0  0  0999 V2000
  -44.1785   65.0961   67.6270 C   0  0  0  0  0  0  0  0  0  0  0  0
  -44.2335   65.5058   66.4392 O   0  0  0  0  0  0  0  0  0  0  0  0
  -44.0305   63.6147   67.9147 C   0  0  0  0  0  0  0  0  0  0  0  0
  -44.2426   65.9248   68.5716 O   0  0  0  0  0  0  0  0  0  0  0  0
  -43.9717   62.8400   66.6021 C   0  0  0  0  0  0  0  0  0  0  0  0
  -43.8404   61.3460   66.8529 C   0  0  0  0  0  0  0  0  0  0  0  0
  -45.0340   60.8182   67.6366 C   0  0  0  0  0  0  0  0  0  0  0  0
  -46.3218   61.0478   66.8512 C   0  0  0  0  0  0  0  0  0  0  0  0
  -46.2869   60.3217   65.5183 C   0  0  0  0  0  0  0  0  0  0  0  0
  -46.1420   58.8190   65.6970 C   0  0  0  0  0  0  0  0  0  0  0  0
  -47.3380   58.3370   66.4800 C   0  0  0  0  0  0  0  0  0  0  0  0
  -48.6910   58.5200   65.9370 C   0  0  0  0  0  0  0  0  0  0  0  0
  -49.8970   58.0544   66.7220 C   0  0  0  0  0  0  0  0  0  0  0  0
  -49.8087   56.5516   66.9851 C   0  0  0  0  0  0  0  0  0  0  0  0
  -48.5795   56.1547   67.7983 C   0  0  0  0  0  0  0  0  0  0  0  0
  -48.5762   56.8215   69.1765 C   0  0  0  0  0  0  0  0  0  0  0  0
  -47.3626   56.4870   70.0522 C   0  0  0  0  0  0  0  0  0  0  0  0
  -46.0428   56.9281   69.4056 C   0  0  0  0  0  0  0  0  0  0  0  0
  -45.9797   58.4385   69.1642 C   0  0  0  0  0  0  0  0  0  0  0  0
  -46.0918   59.2660   70.4504 C   0  0  0  0  0  0  0  0  0  0  0  0
  -44.8683   63.2784   68.4891 H   0  0  0  0  0  0  0  0  0  0  0  0
  -43.1280   63.4489   68.4651 H   0  0  0  0  0  0  0  0  0  0  0  0
  -44.2023   65.6274   69.4592 H   0  0  0  0  0  0  0  0  0  0  0  0
  -43.1274   63.1748   66.0365 H   0  0  0  0  0  0  0  0  0  0  0  0
  -44.8793   63.0155   66.0633 H   0  0  0  0  0  0  0  0  0  0  0  0
  -42.9462   61.1620   67.4109 H   0  0  0  0  0  0  0  0  0  0  0  0
  -43.8029   60.8436   65.9089 H   0  0  0  0  0  0  0  0  0  0  0  0
  -45.0957   61.3299   68.5743 H   0  0  0  0  0  0  0  0  0  0  0  0
  -44.9075   59.7686   67.8014 H   0  0  0  0  0  0  0  0  0  0  0  0
  -46.4412   62.0964   66.6748 H   0  0  0  0  0  0  0  0  0  0  0  0
  -47.1414   60.6668   67.4241 H   0  0  0  0  0  0  0  0  0  0  0  0
  -45.4571   60.6841   64.9482 H   0  0  0  0  0  0  0  0  0  0  0  0
  -47.2116   60.5087   65.0136 H   0  0  0  0  0  0  0  0  0  0  0  0
  -45.2422   58.6001   66.2331 H   0  0  0  0  0  0  0  0  0  0  0  0
  -46.0923   58.3300   64.7466 H   0  0  0  0  0  0  0  0  0  0  0  0
  -47.3129   58.8400   67.4241 H   0  0  0  0  0  0  0  0  0  0  0  0
  -47.2164   57.2740   66.4873 H   0  0  0  0  0  0  0  0  0  0  0  0
  -48.7179   58.0067   64.9986 H   0  0  0  0  0  0  0  0  0  0  0  0
  -48.8057   59.5838   65.9236 H   0  0  0  0  0  0  0  0  0  0  0  0
  -50.7849   58.2635   66.1626 H   0  0  0  0  0  0  0  0  0  0  0  0
  -49.9244   58.5714   67.6584 H   0  0  0  0  0  0  0  0  0  0  0  0
  -49.7728   56.0431   66.0443 H   0  0  0  0  0  0  0  0  0  0  0  0
  -50.6704   56.2778   67.5573 H   0  0  0  0  0  0  0  0  0  0  0  0
  -47.7002   56.4526   67.2663 H   0  0  0  0  0  0  0  0  0  0  0  0
  -48.5998   55.0943   67.9396 H   0  0  0  0  0  0  0  0  0  0  0  0
  -49.4577   56.5117   69.6978 H   0  0  0  0  0  0  0  0  0  0  0  0
  -48.5373   57.8760   68.9998 H   0  0  0  0  0  0  0  0  0  0  0  0
  -47.3324   55.4291   70.2100 H   0  0  0  0  0  0  0  0  0  0  0  0
  -47.4685   57.0154   70.9766 H   0  0  0  0  0  0  0  0  0  0  0  0
  -45.9372   56.4265   68.4664 H   0  0  0  0  0  0  0  0  0  0  0  0
  -45.2517   56.6750   70.0801 H   0  0  0  0  0  0  0  0  0  0  0  0
  -46.7841   58.7119   68.5138 H   0  0  0  0  0  0  0  0  0  0  0  0
  -45.0227   58.6501   68.7350 H   0  0  0  0  0  0  0  0  0  0  0  0
  -47.0395   59.0815   70.9117 H   0  0  0  0  0  0  0  0  0  0  0  0
  -46.0067   60.3061   70.2139 H   0  0  0  0  0  0  0  0  0  0  0  0
  -45.3076   58.9879   71.1230 H   0  0  0  0  0  0  0  0  0  0  0  0
  1  2  2  0  0  0  0
  1  3  1  0  0  0  0
  1  4  1  0  0  0  0
  3  5  1  0  0  0  0
  3 21  1  0  0  0  0
  3 22  1  0  0  0  0
  4 23  1  0  0  0  0
  5  6  1  0  0  0  0
  5 24  1  0  0  0  0
  5 25  1  0  0  0  0
  6  7  1  0  0  0  0
  6 26  1  0  0  0  0
  6 27  1  0  0  0  0
  7  8  1  0  0  0  0
  7 28  1  0  0  0  0
  7 29  1  0  0  0  0
  8  9  1  0  0  0  0
  8 30  1  0  0  0  0
  8 31  1  0  0  0  0
  9 10  1  0  0  0  0
  9 32  1  0  0  0  0
  9 33  1  0  0  0  0
 10 11  1  0  0  0  0
 10 34  1  0  0  0  0
 10 35  1  0  0  0  0
 11 12  1  0  0  0  0
 11 36  1  0  0  0  0
 11 37  1  0  0  0  0
 12 13  1  0  0  0  0
 12 38  1  0  0  0  0
 12 39  1  0  0  0  0
 13 14  1  0  0  0  0
 13 40  1  0  0  0  0
 13 41  1  0  0  0  0
 14 15  1  0  0  0  0
 14 42  1  0  0  0  0
 14 43  1  0  0  0  0
 15 16  1  0  0  0  0
 15 44  1  0  0  0  0
 15 45  1  0  0  0  0
 16 17  1  0  0  0  0
 16 46  1  0  0  0  0
 16 47  1  0  0  0  0
 17 18  1  0  0  0  0
 17 48  1  0  0  0  0
 17 49  1  0  0  0  0
 18 19  1  0  0  0  0
 18 50  1  0  0  0  0
 18 51  1  0  0  0  0
 19 20  1  0  0  0  0
 19 52  1  0  0  0  0
 19 53  1  0  0  0  0
 20 54  1  0  0  0  0
 20 55  1  0  0  0  0
 20 56  1  0  0  0  0
M  END
$$$$