/media/chris/experiments/cd1a-new-docking/inputs/ligands/4x6d_1_ligand.pdb
 OpenBabel07012320263D

 56 55  0  0  0  0  0  0  0  0999 V2000
  -40.6601   57.9626   60.3304 C   0  0  0  0  0  0  0  0  0  0  0  0
  -39.6555   58.1922   59.6095 O   0  0  0  0  0  0  0  0  0  0  0  0
  -40.7645   58.5835   61.7098 C   0  0  0  0  0  0  0  0  0  0  0  0
  -41.5772   57.2189   59.8959 O   0  0  0  0  0  0  0  0  0  0  0  0
  -42.0605   58.1356   62.3778 C   0  0  0  0  0  0  0  0  0  0  0  0
  -42.2074   58.7541   63.7591 C   0  0  0  0  0  0  0  0  0  0  0  0
  -43.4934   58.2911   64.4294 C   0  0  0  0  0  0  0  0  0  0  0  0
  -43.6307   58.9356   65.8055 C   0  0  0  0  0  0  0  0  0  0  0  0
  -44.8989   58.4750   66.5016 C   0  0  0  0  0  0  0  0  0  0  0  0
  -46.1420   58.8190   65.6970 C   0  0  0  0  0  0  0  0  0  0  0  0
  -47.3380   58.3370   66.4800 C   0  0  0  0  0  0  0  0  0  0  0  0
  -48.6910   58.5200   65.9370 C   0  0  0  0  0  0  0  0  0  0  0  0
  -49.0768   57.8833   64.6205 C   0  0  0  0  0  0  0  0  0  0  0  0
  -50.5214   58.2342   64.2666 C   0  0  0  0  0  0  0  0  0  0  0  0
  -50.7548   59.7345   64.1102 C   0  0  0  0  0  0  0  0  0  0  0  0
  -49.8946   60.3249   62.9897 C   0  0  0  0  0  0  0  0  0  0  0  0
  -50.1557   59.7369   61.5977 C   0  0  0  0  0  0  0  0  0  0  0  0
  -51.6014   59.9628   61.1357 C   0  0  0  0  0  0  0  0  0  0  0  0
  -51.9645   61.4467   61.0368 C   0  0  0  0  0  0  0  0  0  0  0  0
  -53.4117   61.6914   60.5927 C   0  0  0  0  0  0  0  0  0  0  0  0
  -40.7600   59.6499   61.6212 H   0  0  0  0  0  0  0  0  0  0  0  0
  -39.9322   58.2691   62.3041 H   0  0  0  0  0  0  0  0  0  0  0  0
  -42.3289   57.0431   60.4270 H   0  0  0  0  0  0  0  0  0  0  0  0
  -42.0551   57.0697   62.4710 H   0  0  0  0  0  0  0  0  0  0  0  0
  -42.8828   58.4564   61.7729 H   0  0  0  0  0  0  0  0  0  0  0  0
  -42.2256   59.8198   63.6653 H   0  0  0  0  0  0  0  0  0  0  0  0
  -41.3785   58.4453   64.3611 H   0  0  0  0  0  0  0  0  0  0  0  0
  -43.4722   57.2268   64.5379 H   0  0  0  0  0  0  0  0  0  0  0  0
  -44.3268   58.5795   63.8235 H   0  0  0  0  0  0  0  0  0  0  0  0
  -43.6612   59.9991   65.6916 H   0  0  0  0  0  0  0  0  0  0  0  0
  -42.7912   58.6449   66.4019 H   0  0  0  0  0  0  0  0  0  0  0  0
  -44.9621   58.9519   67.4573 H   0  0  0  0  0  0  0  0  0  0  0  0
  -44.8537   57.4109   66.6046 H   0  0  0  0  0  0  0  0  0  0  0  0
  -46.1077   58.3309   64.7454 H   0  0  0  0  0  0  0  0  0  0  0  0
  -46.2020   59.8741   65.5296 H   0  0  0  0  0  0  0  0  0  0  0  0
  -47.3129   58.8400   67.4241 H   0  0  0  0  0  0  0  0  0  0  0  0
  -47.2164   57.2740   66.4873 H   0  0  0  0  0  0  0  0  0  0  0  0
  -48.8369   59.5739   65.8234 H   0  0  0  0  0  0  0  0  0  0  0  0
  -49.3084   58.0076   66.6449 H   0  0  0  0  0  0  0  0  0  0  0  0
  -48.9808   56.8206   64.7005 H   0  0  0  0  0  0  0  0  0  0  0  0
  -48.4300   58.2521   63.8520 H   0  0  0  0  0  0  0  0  0  0  0  0
  -51.1601   57.8699   65.0440 H   0  0  0  0  0  0  0  0  0  0  0  0
  -50.7372   57.7788   63.3227 H   0  0  0  0  0  0  0  0  0  0  0  0
  -50.5088   60.2219   65.0304 H   0  0  0  0  0  0  0  0  0  0  0  0
  -51.7834   59.8888   63.8591 H   0  0  0  0  0  0  0  0  0  0  0  0
  -48.8670   60.1550   63.2349 H   0  0  0  0  0  0  0  0  0  0  0  0
  -50.1498   61.3623   62.9302 H   0  0  0  0  0  0  0  0  0  0  0  0
  -49.9634   58.6848   61.6263 H   0  0  0  0  0  0  0  0  0  0  0  0
  -49.5080   60.2322   60.9048 H   0  0  0  0  0  0  0  0  0  0  0  0
  -52.2617   59.4946   61.8356 H   0  0  0  0  0  0  0  0  0  0  0  0
  -51.6981   59.5403   60.1574 H   0  0  0  0  0  0  0  0  0  0  0  0
  -51.3095   61.9096   60.3285 H   0  0  0  0  0  0  0  0  0  0  0  0
  -51.8600   61.8634   62.0168 H   0  0  0  0  0  0  0  0  0  0  0  0
  -53.5572   61.2873   59.6127 H   0  0  0  0  0  0  0  0  0  0  0  0
  -53.6071   62.7433   60.5775 H   0  0  0  0  0  0  0  0  0  0  0  0
  -54.0806   61.2142   61.2781 H   0  0  0  0  0  0  0  0  0  0  0  0
  1  2  2  0  0  0  0
  1  3  1  0  0  0  0
  1  4  1  0  0  0  0
  3  5  1  0  0  0  0
  3 21  1  0  0  0  0
  3 22  1  0  0  0  0
  4 23  1  0  0  0  0
  5  6  1  0  0  0  0
  5 24  1  0  0  0  0
  5 25  1  0  0  0  0
  6  7  1  0  0  0  0
  6 26  1  0  0  0  0
  6 27  1  0  0  0  0
  7  8  1  0  0  0  0
  7 28  1  0  0  0  0
  7 29  1  0  0  0  0
  8  9  1  0  0  0  0
  8 30  1  0  0  0  0
  8 31  1  0  0  0  0
  9 10  1  0  0  0  0
  9 32  1  0  0  0  0
  9 33  1  0  0  0  0
 10 11  1  0  0  0  0
 10 34  1  0  0  0  0
 10 35  1  0  0  0  0
 11 12  1  0  0  0  0
 11 36  1  0  0  0  0
 11 37  1  0  0  0  0
 12 13  1  0  0  0  0
 12 38  1  0  0  0  0
 12 39  1  0  0  0  0
 13 14  1  0  0  0  0
 13 40  1  0  0  0  0
 13 41  1  0  0  0  0
 14 15  1  0  0  0  0
 14 42  1  0  0  0  0
 14 43  1  0  0  0  0
 15 16  1  0  0  0  0
 15 44  1  0  0  0  0
 15 45  1  0  0  0  0
 16 17  1  0  0  0  0
 16 46  1  0  0  0  0
 16 47  1  0  0  0  0
 17 18  1  0  0  0  0
 17 48  1  0  0  0  0
 17 49  1  0  0  0  0
 18 19  1  0  0  0  0
 18 50  1  0  0  0  0
 18 51  1  0  0  0  0
 19 20  1  0  0  0  0
 19 52  1  0  0  0  0
 19 53  1  0  0  0  0
 20 54  1  0  0  0  0
 20 55  1  0  0  0  0
 20 56  1  0  0  0  0
M  END
$$$$