/media/chris/experiments/cd1a-new-docking/inputs/ligands/4x6d_1_ligand.pdb
 OpenBabel07012320263D

 56 55  0  0  0  0  0  0  0  0999 V2000
  -43.8977   63.4828   70.8226 C   0  0  0  0  0  0  0  0  0  0  0  0
  -43.1722   64.4569   71.1489 O   0  0  0  0  0  0  0  0  0  0  0  0
  -45.2155   63.7203   70.1112 C   0  0  0  0  0  0  0  0  0  0  0  0
  -43.5189   62.3125   71.0871 O   0  0  0  0  0  0  0  0  0  0  0  0
  -45.1978   63.0275   68.7525 C   0  0  0  0  0  0  0  0  0  0  0  0
  -46.4998   63.2592   68.0020 C   0  0  0  0  0  0  0  0  0  0  0  0
  -46.4849   62.5519   66.6541 C   0  0  0  0  0  0  0  0  0  0  0  0
  -46.3218   61.0478   66.8512 C   0  0  0  0  0  0  0  0  0  0  0  0
  -46.2869   60.3217   65.5183 C   0  0  0  0  0  0  0  0  0  0  0  0
  -46.1420   58.8190   65.6970 C   0  0  0  0  0  0  0  0  0  0  0  0
  -47.3380   58.3370   66.4800 C   0  0  0  0  0  0  0  0  0  0  0  0
  -48.6910   58.5200   65.9370 C   0  0  0  0  0  0  0  0  0  0  0  0
  -49.8970   58.0544   66.7220 C   0  0  0  0  0  0  0  0  0  0  0  0
  -51.1790   58.3402   65.9408 C   0  0  0  0  0  0  0  0  0  0  0  0
  -52.4428   57.9111   66.6813 C   0  0  0  0  0  0  0  0  0  0  0  0
  -53.7024   58.1980   65.8596 C   0  0  0  0  0  0  0  0  0  0  0  0
  -55.0200   57.8108   66.5418 C   0  0  0  0  0  0  0  0  0  0  0  0
  -55.0784   56.3156   66.8818 C   0  0  0  0  0  0  0  0  0  0  0  0
  -53.9681   55.8853   67.8439 C   0  0  0  0  0  0  0  0  0  0  0  0
  -54.0005   54.3898   68.1816 C   0  0  0  0  0  0  0  0  0  0  0  0
  -45.3607   64.7713   69.9728 H   0  0  0  0  0  0  0  0  0  0  0  0
  -46.0141   63.3223   70.7018 H   0  0  0  0  0  0  0  0  0  0  0  0
  -44.0538   61.5815   70.8473 H   0  0  0  0  0  0  0  0  0  0  0  0
  -45.0608   61.9763   68.8982 H   0  0  0  0  0  0  0  0  0  0  0  0
  -44.3952   63.4350   68.1740 H   0  0  0  0  0  0  0  0  0  0  0  0
  -46.6310   64.3095   67.8448 H   0  0  0  0  0  0  0  0  0  0  0  0
  -47.3050   62.8644   68.5857 H   0  0  0  0  0  0  0  0  0  0  0  0
  -45.6691   62.9224   66.0693 H   0  0  0  0  0  0  0  0  0  0  0  0
  -47.4099   62.7402   66.1503 H   0  0  0  0  0  0  0  0  0  0  0  0
  -47.1446   60.6799   67.4280 H   0  0  0  0  0  0  0  0  0  0  0  0
  -45.3969   60.8702   67.3590 H   0  0  0  0  0  0  0  0  0  0  0  0
  -45.4571   60.6841   64.9482 H   0  0  0  0  0  0  0  0  0  0  0  0
  -47.2116   60.5087   65.0136 H   0  0  0  0  0  0  0  0  0  0  0  0
  -45.2422   58.6001   66.2331 H   0  0  0  0  0  0  0  0  0  0  0  0
  -46.0923   58.3300   64.7466 H   0  0  0  0  0  0  0  0  0  0  0  0
  -47.3129   58.8400   67.4241 H   0  0  0  0  0  0  0  0  0  0  0  0
  -47.2164   57.2740   66.4873 H   0  0  0  0  0  0  0  0  0  0  0  0
  -48.7179   58.0067   64.9986 H   0  0  0  0  0  0  0  0  0  0  0  0
  -48.8057   59.5838   65.9236 H   0  0  0  0  0  0  0  0  0  0  0  0
  -49.9308   58.5721   67.6578 H   0  0  0  0  0  0  0  0  0  0  0  0
  -49.8184   57.0005   66.8895 H   0  0  0  0  0  0  0  0  0  0  0  0
  -51.1348   57.8137   65.0103 H   0  0  0  0  0  0  0  0  0  0  0  0
  -51.2366   59.3994   65.8008 H   0  0  0  0  0  0  0  0  0  0  0  0
  -52.5020   58.4463   67.6060 H   0  0  0  0  0  0  0  0  0  0  0  0
  -52.3883   56.8564   66.8531 H   0  0  0  0  0  0  0  0  0  0  0  0
  -53.6312   57.6539   64.9411 H   0  0  0  0  0  0  0  0  0  0  0  0
  -53.7360   59.2586   65.7219 H   0  0  0  0  0  0  0  0  0  0  0  0
  -55.8308   58.0467   65.8847 H   0  0  0  0  0  0  0  0  0  0  0  0
  -55.0894   58.3592   67.4580 H   0  0  0  0  0  0  0  0  0  0  0  0
  -54.9829   55.7544   65.9758 H   0  0  0  0  0  0  0  0  0  0  0  0
  -56.0149   56.1301   67.3650 H   0  0  0  0  0  0  0  0  0  0  0  0
  -54.0726   56.4405   68.7526 H   0  0  0  0  0  0  0  0  0  0  0  0
  -53.0353   56.0789   67.3567 H   0  0  0  0  0  0  0  0  0  0  0  0
  -54.9219   54.1549   68.6723 H   0  0  0  0  0  0  0  0  0  0  0  0
  -53.1815   54.1522   68.8279 H   0  0  0  0  0  0  0  0  0  0  0  0
  -53.9208   53.8188   67.2802 H   0  0  0  0  0  0  0  0  0  0  0  0
  1  2  2  0  0  0  0
  1  3  1  0  0  0  0
  1  4  1  0  0  0  0
  3  5  1  0  0  0  0
  3 21  1  0  0  0  0
  3 22  1  0  0  0  0
  4 23  1  0  0  0  0
  5  6  1  0  0  0  0
  5 24  1  0  0  0  0
  5 25  1  0  0  0  0
  6  7  1  0  0  0  0
  6 26  1  0  0  0  0
  6 27  1  0  0  0  0
  7  8  1  0  0  0  0
  7 28  1  0  0  0  0
  7 29  1  0  0  0  0
  8  9  1  0  0  0  0
  8 30  1  0  0  0  0
  8 31  1  0  0  0  0
  9 10  1  0  0  0  0
  9 32  1  0  0  0  0
  9 33  1  0  0  0  0
 10 11  1  0  0  0  0
 10 34  1  0  0  0  0
 10 35  1  0  0  0  0
 11 12  1  0  0  0  0
 11 36  1  0  0  0  0
 11 37  1  0  0  0  0
 12 13  1  0  0  0  0
 12 38  1  0  0  0  0
 12 39  1  0  0  0  0
 13 14  1  0  0  0  0
 13 40  1  0  0  0  0
 13 41  1  0  0  0  0
 14 15  1  0  0  0  0
 14 42  1  0  0  0  0
 14 43  1  0  0  0  0
 15 16  1  0  0  0  0
 15 44  1  0  0  0  0
 15 45  1  0  0  0  0
 16 17  1  0  0  0  0
 16 46  1  0  0  0  0
 16 47  1  0  0  0  0
 17 18  1  0  0  0  0
 17 48  1  0  0  0  0
 17 49  1  0  0  0  0
 18 19  1  0  0  0  0
 18 50  1  0  0  0  0
 18 51  1  0  0  0  0
 19 20  1  0  0  0  0
 19 52  1  0  0  0  0
 19 53  1  0  0  0  0
 20 54  1  0  0  0  0
 20 55  1  0  0  0  0
 20 56  1  0  0  0  0
M  END
$$$$