/media/chris/experiments/cd1a-new-docking/inputs/ligands/4x6d_1_ligand.pdb
 OpenBabel07012320263D

 56 55  0  0  0  0  0  0  0  0999 V2000
  -40.9165   56.7863   67.4701 C   0  0  0  0  0  0  0  0  0  0  0  0
  -40.8008   55.5380   67.3703 O   0  0  0  0  0  0  0  0  0  0  0  0
  -40.9984   57.4359   68.8378 C   0  0  0  0  0  0  0  0  0  0  0  0
  -40.9589   57.4897   66.4277 O   0  0  0  0  0  0  0  0  0  0  0  0
  -41.1515   58.9453   68.6811 C   0  0  0  0  0  0  0  0  0  0  0  0
  -42.4220   59.2913   67.9208 C   0  0  0  0  0  0  0  0  0  0  0  0
  -43.6536   58.7859   68.6593 C   0  0  0  0  0  0  0  0  0  0  0  0
  -44.9155   59.1273   67.8725 C   0  0  0  0  0  0  0  0  0  0  0  0
  -44.8989   58.4750   66.5016 C   0  0  0  0  0  0  0  0  0  0  0  0
  -46.1420   58.8190   65.6970 C   0  0  0  0  0  0  0  0  0  0  0  0
  -47.3380   58.3370   66.4800 C   0  0  0  0  0  0  0  0  0  0  0  0
  -48.6910   58.5200   65.9370 C   0  0  0  0  0  0  0  0  0  0  0  0
  -49.8970   58.0544   66.7220 C   0  0  0  0  0  0  0  0  0  0  0  0
  -51.1790   58.3402   65.9408 C   0  0  0  0  0  0  0  0  0  0  0  0
  -51.3738   59.8209   65.6257 C   0  0  0  0  0  0  0  0  0  0  0  0
  -51.4310   60.6657   66.9013 C   0  0  0  0  0  0  0  0  0  0  0  0
  -51.6425   62.1671   66.6720 C   0  0  0  0  0  0  0  0  0  0  0  0
  -52.9652   62.4623   65.9526 C   0  0  0  0  0  0  0  0  0  0  0  0
  -54.1863   61.9848   66.7429 C   0  0  0  0  0  0  0  0  0  0  0  0
  -54.3206   62.6510   68.1176 C   0  0  0  0  0  0  0  0  0  0  0  0
  -40.1045   57.2240   69.3864 H   0  0  0  0  0  0  0  0  0  0  0  0
  -41.8441   57.0465   69.3652 H   0  0  0  0  0  0  0  0  0  0  0  0
  -41.0450   58.4204   66.4938 H   0  0  0  0  0  0  0  0  0  0  0  0
  -40.3083   59.3281   68.1449 H   0  0  0  0  0  0  0  0  0  0  0  0
  -41.2087   59.3838   69.6554 H   0  0  0  0  0  0  0  0  0  0  0  0
  -42.3845   58.8386   66.9520 H   0  0  0  0  0  0  0  0  0  0  0  0
  -42.4888   60.3557   67.8344 H   0  0  0  0  0  0  0  0  0  0  0  0
  -43.7021   59.2477   69.6233 H   0  0  0  0  0  0  0  0  0  0  0  0
  -43.5853   57.7235   68.7667 H   0  0  0  0  0  0  0  0  0  0  0  0
  -44.9764   60.1889   67.7535 H   0  0  0  0  0  0  0  0  0  0  0  0
  -45.7625   58.7599   68.4132 H   0  0  0  0  0  0  0  0  0  0  0  0
  -44.8486   57.4132   66.6239 H   0  0  0  0  0  0  0  0  0  0  0  0
  -44.0464   58.8419   65.9692 H   0  0  0  0  0  0  0  0  0  0  0  0
  -46.1077   58.3309   64.7454 H   0  0  0  0  0  0  0  0  0  0  0  0
  -46.2020   59.8741   65.5296 H   0  0  0  0  0  0  0  0  0  0  0  0
  -47.3129   58.8400   67.4241 H   0  0  0  0  0  0  0  0  0  0  0  0
  -47.2164   57.2740   66.4873 H   0  0  0  0  0  0  0  0  0  0  0  0
  -48.7179   58.0067   64.9986 H   0  0  0  0  0  0  0  0  0  0  0  0
  -48.8057   59.5838   65.9236 H   0  0  0  0  0  0  0  0  0  0  0  0
  -49.9308   58.5721   67.6578 H   0  0  0  0  0  0  0  0  0  0  0  0
  -49.8184   57.0005   66.8895 H   0  0  0  0  0  0  0  0  0  0  0  0
  -52.0128   58.0033   66.5206 H   0  0  0  0  0  0  0  0  0  0  0  0
  -51.1040   57.8236   65.0067 H   0  0  0  0  0  0  0  0  0  0  0  0
  -52.2898   59.9437   65.0866 H   0  0  0  0  0  0  0  0  0  0  0  0
  -50.5398   60.1515   65.0425 H   0  0  0  0  0  0  0  0  0  0  0  0
  -50.5083   60.5365   67.4274 H   0  0  0  0  0  0  0  0  0  0  0  0
  -52.2830   60.3229   67.4505 H   0  0  0  0  0  0  0  0  0  0  0  0
  -50.8356   62.5420   66.0776 H   0  0  0  0  0  0  0  0  0  0  0  0
  -51.6751   62.6445   67.6291 H   0  0  0  0  0  0  0  0  0  0  0  0
  -52.9567   61.9679   65.0037 H   0  0  0  0  0  0  0  0  0  0  0  0
  -53.0448   63.5239   65.8445 H   0  0  0  0  0  0  0  0  0  0  0  0
  -54.1061   60.9273   66.8849 H   0  0  0  0  0  0  0  0  0  0  0  0
  -55.0536   62.2522   66.1762 H   0  0  0  0  0  0  0  0  0  0  0  0
  -53.4687   62.4067   68.7171 H   0  0  0  0  0  0  0  0  0  0  0  0
  -55.2087   62.2987   68.5994 H   0  0  0  0  0  0  0  0  0  0  0  0
  -54.3783   63.7125   67.9954 H   0  0  0  0  0  0  0  0  0  0  0  0
  1  2  2  0  0  0  0
  1  3  1  0  0  0  0
  1  4  1  0  0  0  0
  3  5  1  0  0  0  0
  3 21  1  0  0  0  0
  3 22  1  0  0  0  0
  4 23  1  0  0  0  0
  5  6  1  0  0  0  0
  5 24  1  0  0  0  0
  5 25  1  0  0  0  0
  6  7  1  0  0  0  0
  6 26  1  0  0  0  0
  6 27  1  0  0  0  0
  7  8  1  0  0  0  0
  7 28  1  0  0  0  0
  7 29  1  0  0  0  0
  8  9  1  0  0  0  0
  8 30  1  0  0  0  0
  8 31  1  0  0  0  0
  9 10  1  0  0  0  0
  9 32  1  0  0  0  0
  9 33  1  0  0  0  0
 10 11  1  0  0  0  0
 10 34  1  0  0  0  0
 10 35  1  0  0  0  0
 11 12  1  0  0  0  0
 11 36  1  0  0  0  0
 11 37  1  0  0  0  0
 12 13  1  0  0  0  0
 12 38  1  0  0  0  0
 12 39  1  0  0  0  0
 13 14  1  0  0  0  0
 13 40  1  0  0  0  0
 13 41  1  0  0  0  0
 14 15  1  0  0  0  0
 14 42  1  0  0  0  0
 14 43  1  0  0  0  0
 15 16  1  0  0  0  0
 15 44  1  0  0  0  0
 15 45  1  0  0  0  0
 16 17  1  0  0  0  0
 16 46  1  0  0  0  0
 16 47  1  0  0  0  0
 17 18  1  0  0  0  0
 17 48  1  0  0  0  0
 17 49  1  0  0  0  0
 18 19  1  0  0  0  0
 18 50  1  0  0  0  0
 18 51  1  0  0  0  0
 19 20  1  0  0  0  0
 19 52  1  0  0  0  0
 19 53  1  0  0  0  0
 20 54  1  0  0  0  0
 20 55  1  0  0  0  0
 20 56  1  0  0  0  0
M  END
$$$$