/media/chris/experiments/cd1a-new-docking/inputs/ligands/1xz0_ligand.pdb
 OpenBabel07022319323D

125127  0  0  1  0  0  0  0  0999 V2000
  -38.2349   61.2640   59.2525 N   0  0  0  0  0  0  0  0  0  0  0  0
  -38.3144   62.1542   58.2283 C   0  0  0  0  0  0  0  0  0  0  0  0
  -34.4677   58.7167   64.4620 O   0  0  0  0  0  0  0  0  0  0  0  0
  -31.1737   64.7787   65.3710 Si  0  0  0  0  0  0  0  0  0  0  0  0
  -37.5169   61.6622   60.3889 O   0  0  0  0  0  0  0  0  0  0  0  0
  -30.0833   63.3989   65.6921 O   0  0  0  0  0  0  0  0  0  0  0  0
  -38.8026   59.9157   59.3501 C   0  0  0  0  0  0  0  0  0  0  0  0
  -32.1171   59.6609   64.3715 N   0  0  0  0  0  0  0  0  0  0  0  0
  -34.8529   57.6257   62.4617 O   0  0  0  0  0  0  0  0  0  0  0  0
  -39.1167   59.6292   60.8329 C   0  0  0  0  0  0  0  0  0  0  0  0
  -36.8950   59.8150   64.6310 N   0  0  0  0  0  0  0  0  0  0  0  0
  -33.2605   57.8052   64.9753 O   0  0  0  0  0  0  0  0  0  0  0  0
  -37.9469   59.6864   61.8299 C   0  0  0  0  0  0  0  0  0  0  0  0
  -30.4910   62.1230   65.4431 N   0  0  0  0  0  0  0  0  0  0  0  0
  -37.6467   59.1566   66.6741 O   0  0  0  0  0  0  0  0  0  0  0  0
  -37.6390   58.4030   62.6110 C   0  0  0  0  0  0  0  0  0  0  0  0
  -38.7655   62.0216   66.1297 N   0  0  0  0  0  0  0  0  0  0  0  0
  -38.9367   61.8883   57.2001 O   0  0  0  0  0  0  0  0  0  0  0  0
  -36.7890   58.5530   63.8960 C   0  0  1  0  0  0  0  0  0  0  0  0
  -32.6405   62.7538   65.6599 O   0  0  0  0  0  0  0  0  0  0  0  0
  -35.3080   58.3090   63.6770 C   0  0  0  0  0  0  0  0  0  0  0  0
  -37.4262   63.5725   65.2393 O   0  0  0  0  0  0  0  0  0  0  0  0
  -33.6205   56.8810   62.4377 C   0  0  1  0  0  0  0  0  0  0  0  0
  -41.4791   62.3262   66.1586 O   0  0  0  0  0  0  0  0  0  0  0  0
  -32.4822   57.8264   62.7912 C   0  0  0  0  0  0  0  0  0  0  0  0
  -33.6090   55.6479   63.3326 C   0  0  0  0  0  0  0  0  0  0  0  0
  -32.6214   58.4357   64.1645 C   0  0  0  0  0  0  0  0  0  0  0  0
  -37.2920   60.0330   65.8968 C   0  0  0  0  0  0  0  0  0  0  0  0
  -37.6079   63.5070   58.3647 C   0  0  0  0  0  0  0  0  0  0  0  0
  -36.1625   63.5241   57.8490 C   0  0  0  0  0  0  0  0  0  0  0  0
  -35.5459   64.9218   58.0504 C   0  0  0  0  0  0  0  0  0  0  0  0
  -34.0959   65.0334   57.5424 C   0  0  0  0  0  0  0  0  0  0  0  0
  -33.4492   66.4161   57.7471 C   0  0  0  0  0  0  0  0  0  0  0  0
  -34.2201   67.5500   57.0392 C   0  0  0  0  0  0  0  0  0  0  0  0
  -35.6785   67.7323   57.5205 C   0  0  0  0  0  0  0  0  0  0  0  0
  -36.4264   68.8532   56.7895 C   0  0  0  0  0  0  0  0  0  0  0  0
  -37.8711   69.0826   57.2446 C   0  0  0  0  0  0  0  0  0  0  0  0
  -38.5396   70.2131   56.4412 C   0  0  0  0  0  0  0  0  0  0  0  0
  -38.6205   69.9404   54.9316 C   0  0  0  0  0  0  0  0  0  0  0  0
  -37.2805   69.7189   54.2224 C   0  0  0  0  0  0  0  0  0  0  0  0
  -37.4015   69.4641   52.6992 C   0  0  0  0  0  0  0  0  0  0  0  0
  -36.0203   69.2326   52.0535 C   0  0  0  0  0  0  0  0  0  0  0  0
  -35.9878   68.9835   50.5408 C   0  0  0  0  0  0  0  0  0  0  0  0
  -29.4546   61.1522   65.0621 C   0  0  0  0  0  0  0  0  0  0  0  0
  -29.2534   60.1051   66.1738 C   0  0  0  0  0  0  0  0  0  0  0  0
  -30.2561   60.1688   67.3141 C   0  0  0  0  0  0  0  0  0  0  0  0
  -31.6752   59.7861   66.8854 C   0  0  0  0  0  0  0  0  0  0  0  0
  -32.2649   60.4236   65.6164 C   0  0  1  0  0  0  0  0  0  0  0  0
  -31.8039   61.8669   65.5585 C   0  0  0  0  0  0  0  0  0  0  0  0
  -36.5259   62.5734   65.7165 C   0  0  0  0  0  0  0  0  0  0  0  0
  -38.7685   63.1323   65.5264 C   0  0  0  0  0  0  0  0  0  0  0  0
  -37.4151   61.4760   66.3644 C   0  0  1  0  0  0  0  0  0  0  0  0
  -41.2815   63.4986   65.5437 C   0  0  0  0  0  0  0  0  0  0  0  0
  -42.3792   64.3129   65.2356 C   0  0  0  0  0  0  0  0  0  0  0  0
  -42.1991   65.5436   64.5820 C   0  0  0  0  0  0  0  0  0  0  0  0
  -40.9181   65.9787   64.2380 C   0  0  0  0  0  0  0  0  0  0  0  0
  -39.8192   65.1730   64.5489 C   0  0  0  0  0  0  0  0  0  0  0  0
  -39.9973   63.9351   65.1960 C   0  0  0  0  0  0  0  0  0  0  0  0
  -30.5166   65.9905   65.7116 H   0  0  0  0  0  0  0  0  0  0  0  0
  -32.3515   64.6431   66.1526 H   0  0  0  0  0  0  0  0  0  0  0  0
  -31.5192   64.7985   63.9938 H   0  0  0  0  0  0  0  0  0  0  0  0
  -37.1718   62.5589   60.2555 H   0  0  0  0  0  0  0  0  0  0  0  0
  -38.0974   59.1988   58.9845 H   0  0  0  0  0  0  0  0  0  0  0  0
  -39.6954   59.8480   58.7642 H   0  0  0  0  0  0  0  0  0  0  0  0
  -31.6121   60.0780   63.6366 H   0  0  0  0  0  0  0  0  0  0  0  0
  -39.5368   58.6466   60.8876 H   0  0  0  0  0  0  0  0  0  0  0  0
  -39.7690   60.4229   61.1319 H   0  0  0  0  0  0  0  0  0  0  0  0
  -36.6386   60.6199   64.1253 H   0  0  0  0  0  0  0  0  0  0  0  0
  -37.3952   60.5477   61.9667 H   0  0  0  0  0  0  0  0  0  0  0  0
  -37.9824   57.4826   62.2948 H   0  0  0  0  0  0  0  0  0  0  0  0
  -37.2383   57.7881   64.4943 H   0  0  0  0  0  0  0  0  0  0  0  0
  -33.5021   56.4916   61.4482 H   0  0  0  0  0  0  0  0  0  0  0  0
  -42.3477   62.0547   66.3817 H   0  0  0  0  0  0  0  0  0  0  0  0
  -32.4591   58.6160   62.0695 H   0  0  0  0  0  0  0  0  0  0  0  0
  -31.5791   57.2526   62.7877 H   0  0  0  0  0  0  0  0  0  0  0  0
  -33.7234   55.9471   64.3536 H   0  0  0  0  0  0  0  0  0  0  0  0
  -32.6801   55.1302   63.2146 H   0  0  0  0  0  0  0  0  0  0  0  0
  -34.4155   55.0005   63.0581 H   0  0  0  0  0  0  0  0  0  0  0  0
  -37.5965   63.7753   59.4005 H   0  0  0  0  0  0  0  0  0  0  0  0
  -38.1555   64.1991   57.7596 H   0  0  0  0  0  0  0  0  0  0  0  0
  -36.1555   63.2809   56.8070 H   0  0  0  0  0  0  0  0  0  0  0  0
  -35.5872   62.8053   58.3941 H   0  0  0  0  0  0  0  0  0  0  0  0
  -35.5569   65.1492   59.0959 H   0  0  0  0  0  0  0  0  0  0  0  0
  -36.1332   65.6099   57.4790 H   0  0  0  0  0  0  0  0  0  0  0  0
  -34.0915   64.8147   56.4950 H   0  0  0  0  0  0  0  0  0  0  0  0
  -33.5187   64.3405   58.1183 H   0  0  0  0  0  0  0  0  0  0  0  0
  -32.4522   66.3875   57.3599 H   0  0  0  0  0  0  0  0  0  0  0  0
  -33.4628   66.6249   58.7965 H   0  0  0  0  0  0  0  0  0  0  0  0
  -34.2384   67.3376   55.9906 H   0  0  0  0  0  0  0  0  0  0  0  0
  -33.7067   68.4591   57.2732 H   0  0  0  0  0  0  0  0  0  0  0  0
  -35.6644   67.9599   58.5659 H   0  0  0  0  0  0  0  0  0  0  0  0
  -36.1960   66.8194   57.3116 H   0  0  0  0  0  0  0  0  0  0  0  0
  -36.4425   68.6142   55.7466 H   0  0  0  0  0  0  0  0  0  0  0  0
  -35.8987   69.7564   57.0147 H   0  0  0  0  0  0  0  0  0  0  0  0
  -37.8719   69.3450   58.2819 H   0  0  0  0  0  0  0  0  0  0  0  0
  -38.4232   68.1808   57.0809 H   0  0  0  0  0  0  0  0  0  0  0  0
  -37.9776   71.1112   56.5916 H   0  0  0  0  0  0  0  0  0  0  0  0
  -39.5456   70.2937   56.7966 H   0  0  0  0  0  0  0  0  0  0  0  0
  -39.1010   70.7785   54.4716 H   0  0  0  0  0  0  0  0  0  0  0  0
  -39.1590   69.0213   54.8302 H   0  0  0  0  0  0  0  0  0  0  0  0
  -36.8018   68.8716   54.6671 H   0  0  0  0  0  0  0  0  0  0  0  0
  -36.7185   70.6219   54.3389 H   0  0  0  0  0  0  0  0  0  0  0  0
  -37.8619   70.3139   52.2400 H   0  0  0  0  0  0  0  0  0  0  0  0
  -37.9927   68.5846   52.5518 H   0  0  0  0  0  0  0  0  0  0  0  0
  -35.5809   68.3811   52.5297 H   0  0  0  0  0  0  0  0  0  0  0  0
  -35.4923   70.1526   52.1934 H   0  0  0  0  0  0  0  0  0  0  0  0
  -36.5013   68.0715   50.3184 H   0  0  0  0  0  0  0  0  0  0  0  0
  -34.9719   68.9099   50.2132 H   0  0  0  0  0  0  0  0  0  0  0  0
  -36.4676   69.7954   50.0353 H   0  0  0  0  0  0  0  0  0  0  0  0
  -28.5328   61.6695   64.8960 H   0  0  0  0  0  0  0  0  0  0  0  0
  -29.7651   60.6505   64.1694 H   0  0  0  0  0  0  0  0  0  0  0  0
  -28.2755   60.2435   66.5853 H   0  0  0  0  0  0  0  0  0  0  0  0
  -29.3921   59.1507   65.7104 H   0  0  0  0  0  0  0  0  0  0  0  0
  -30.2735   61.1676   67.6974 H   0  0  0  0  0  0  0  0  0  0  0  0
  -29.9440   59.4620   68.0544 H   0  0  0  0  0  0  0  0  0  0  0  0
  -32.3269   60.0384   67.6957 H   0  0  0  0  0  0  0  0  0  0  0  0
  -31.5993   58.7472   66.6408 H   0  0  0  0  0  0  0  0  0  0  0  0
  -33.3314   60.3999   65.6993 H   0  0  0  0  0  0  0  0  0  0  0  0
  -35.8590   62.9892   66.4427 H   0  0  0  0  0  0  0  0  0  0  0  0
  -35.9238   62.1762   64.9262 H   0  0  0  0  0  0  0  0  0  0  0  0
  -37.1134   61.3290   67.3804 H   0  0  0  0  0  0  0  0  0  0  0  0
  -43.3305   64.0054   65.4915 H   0  0  0  0  0  0  0  0  0  0  0  0
  -43.0182   66.1290   64.3551 H   0  0  0  0  0  0  0  0  0  0  0  0
  -40.7842   66.8837   63.7603 H   0  0  0  0  0  0  0  0  0  0  0  0
  -38.8681   65.4883   64.3018 H   0  0  0  0  0  0  0  0  0  0  0  0
  1  2  1  0  0  0  0
  1  5  1  0  0  0  0
  1  7  1  0  0  0  0
  2 18  2  0  0  0  0
  2 29  1  0  0  0  0
  3 21  2  0  0  0  0
  4  6  1  0  0  0  0
  4 59  1  0  0  0  0
  4 60  1  0  0  0  0
  4 61  1  0  0  0  0
  5 62  1  0  0  0  0
  6 14  1  0  0  0  0
  7 10  1  0  0  0  0
  7 63  1  0  0  0  0
  7 64  1  0  0  0  0
  8 27  1  0  0  0  0
  8 48  1  0  0  0  0
  8 65  1  0  0  0  0
  9 21  1  0  0  0  0
  9 23  1  0  0  0  0
 10 13  1  0  0  0  0
 10 66  1  0  0  0  0
 10 67  1  0  0  0  0
 11 19  1  0  0  0  0
 11 28  1  0  0  0  0
 11 68  1  0  0  0  0
 12 27  2  0  0  0  0
 13 16  2  0  0  0  0
 13 69  1  0  0  0  0
 14 44  1  0  0  0  0
 14 49  1  0  0  0  0
 15 28  2  0  0  0  0
 16 19  1  0  0  0  0
 16 70  1  0  0  0  0
 17 51  2  0  0  0  0
 17 52  1  0  0  0  0
 19 21  1  0  0  0  0
 19 71  1  1  0  0  0
 20 49  2  0  0  0  0
 22 50  1  0  0  0  0
 22 51  1  0  0  0  0
 23 25  1  0  0  0  0
 23 26  1  0  0  0  0
 23 72  1  6  0  0  0
 24 53  1  0  0  0  0
 24 73  1  0  0  0  0
 25 27  1  0  0  0  0
 25 74  1  0  0  0  0
 25 75  1  0  0  0  0
 26 76  1  0  0  0  0
 26 77  1  0  0  0  0
 26 78  1  0  0  0  0
 28 52  1  0  0  0  0
 29 30  1  0  0  0  0
 29 79  1  0  0  0  0
 29 80  1  0  0  0  0
 30 31  1  0  0  0  0
 30 81  1  0  0  0  0
 30 82  1  0  0  0  0
 31 32  1  0  0  0  0
 31 83  1  0  0  0  0
 31 84  1  0  0  0  0
 32 33  1  0  0  0  0
 32 85  1  0  0  0  0
 32 86  1  0  0  0  0
 33 34  1  0  0  0  0
 33 87  1  0  0  0  0
 33 88  1  0  0  0  0
 34 35  1  0  0  0  0
 34 89  1  0  0  0  0
 34 90  1  0  0  0  0
 35 36  1  0  0  0  0
 35 91  1  0  0  0  0
 35 92  1  0  0  0  0
 36 37  1  0  0  0  0
 36 93  1  0  0  0  0
 36 94  1  0  0  0  0
 37 38  1  0  0  0  0
 37 95  1  0  0  0  0
 37 96  1  0  0  0  0
 38 39  1  0  0  0  0
 38 97  1  0  0  0  0
 38 98  1  0  0  0  0
 39 40  1  0  0  0  0
 39 99  1  0  0  0  0
 39100  1  0  0  0  0
 40 41  1  0  0  0  0
 40101  1  0  0  0  0
 40102  1  0  0  0  0
 41 42  1  0  0  0  0
 41103  1  0  0  0  0
 41104  1  0  0  0  0
 42 43  1  0  0  0  0
 42105  1  0  0  0  0
 42106  1  0  0  0  0
 43107  1  0  0  0  0
 43108  1  0  0  0  0
 43109  1  0  0  0  0
 44 45  1  0  0  0  0
 44110  1  0  0  0  0
 44111  1  0  0  0  0
 45 46  1  0  0  0  0
 45112  1  0  0  0  0
 45113  1  0  0  0  0
 46 47  1  0  0  0  0
 46114  1  0  0  0  0
 46115  1  0  0  0  0
 47 48  1  0  0  0  0
 47116  1  0  0  0  0
 47117  1  0  0  0  0
 48 49  1  0  0  0  0
 48118  1  1  0  0  0
 50 52  1  0  0  0  0
 50119  1  0  0  0  0
 50120  1  0  0  0  0
 51 58  1  0  0  0  0
 52121  1  1  0  0  0
 53 54  2  0  0  0  0
 53 58  1  0  0  0  0
 54 55  1  0  0  0  0
 54122  1  0  0  0  0
 55 56  2  0  0  0  0
 55123  1  0  0  0  0
 56 57  1  0  0  0  0
 56124  1  0  0  0  0
 57 58  2  0  0  0  0
 57125  1  0  0  0  0
M  END
$$$$