/media/chris/experiments/cd1a-new-docking/inputs/ligands/1xz0_ligand.pdb
 OpenBabel07022319323D

125127  0  0  1  0  0  0  0  0999 V2000
  -37.3690   55.3929   59.3295 N   0  0  0  0  0  0  0  0  0  0  0  0
  -38.0990   54.4610   58.6614 C   0  0  0  0  0  0  0  0  0  0  0  0
  -34.9015   57.3291   63.0745 O   0  0  0  0  0  0  0  0  0  0  0  0
  -32.5842   64.7218   57.1790 Si  0  0  0  0  0  0  0  0  0  0  0  0
  -36.7736   54.9927   60.5341 O   0  0  0  0  0  0  0  0  0  0  0  0
  -31.7474   64.3105   58.7043 O   0  0  0  0  0  0  0  0  0  0  0  0
  -37.1032   56.7893   58.9700 C   0  0  0  0  0  0  0  0  0  0  0  0
  -33.4771   61.5655   61.7581 N   0  0  0  0  0  0  0  0  0  0  0  0
  -34.3234   59.2293   64.2555 O   0  0  0  0  0  0  0  0  0  0  0  0
  -37.6556   57.6914   60.0926 C   0  0  0  0  0  0  0  0  0  0  0  0
  -36.8950   59.8150   64.6310 N   0  0  0  0  0  0  0  0  0  0  0  0
  -32.6955   59.5170   61.2028 O   0  0  0  0  0  0  0  0  0  0  0  0
  -37.0678   57.5104   61.5024 C   0  0  0  0  0  0  0  0  0  0  0  0
  -32.4238   63.7126   59.7245 N   0  0  0  0  0  0  0  0  0  0  0  0
  -35.4578   59.5184   66.3686 O   0  0  0  0  0  0  0  0  0  0  0  0
  -37.6390   58.4030   62.6110 C   0  0  0  0  0  0  0  0  0  0  0  0
  -38.0692   61.8794   66.0900 N   0  0  0  0  0  0  0  0  0  0  0  0
  -38.6439   54.7267   57.5903 O   0  0  0  0  0  0  0  0  0  0  0  0
  -36.7890   58.5530   63.8960 C   0  0  1  0  0  0  0  0  0  0  0  0
  -32.7157   61.8686   58.4675 O   0  0  0  0  0  0  0  0  0  0  0  0
  -35.3080   58.3090   63.6770 C   0  0  0  0  0  0  0  0  0  0  0  0
  -36.9691   63.7250   65.4772 O   0  0  0  0  0  0  0  0  0  0  0  0
  -32.9090   58.9936   64.1228 C   0  0  1  0  0  0  0  0  0  0  0  0
  -38.6471   65.0045   63.5251 O   0  0  0  0  0  0  0  0  0  0  0  0
  -32.2928   60.1754   63.3893 C   0  0  0  0  0  0  0  0  0  0  0  0
  -32.1864   58.7248   65.4370 C   0  0  0  0  0  0  0  0  0  0  0  0
  -32.8793   60.3932   62.0164 C   0  0  0  0  0  0  0  0  0  0  0  0
  -36.2648   60.2028   65.7534 C   0  0  0  0  0  0  0  0  0  0  0  0
  -38.2445   53.0601   59.2650 C   0  0  0  0  0  0  0  0  0  0  0  0
  -37.1611   52.0644   58.8287 C   0  0  0  0  0  0  0  0  0  0  0  0
  -37.1784   51.9024   57.2965 C   0  0  0  0  0  0  0  0  0  0  0  0
  -36.1296   50.9034   56.7718 C   0  0  0  0  0  0  0  0  0  0  0  0
  -36.2926   49.4658   57.2999 C   0  0  0  0  0  0  0  0  0  0  0  0
  -37.6475   48.8352   56.9152 C   0  0  0  0  0  0  0  0  0  0  0  0
  -37.8904   48.7156   55.3926 C   0  0  0  0  0  0  0  0  0  0  0  0
  -39.2499   48.1021   55.0383 C   0  0  0  0  0  0  0  0  0  0  0  0
  -39.5290   47.9477   53.5399 C   0  0  0  0  0  0  0  0  0  0  0  0
  -39.4781   49.3061   52.8168 C   0  0  0  0  0  0  0  0  0  0  0  0
  -40.4882   50.3334   53.3499 C   0  0  0  0  0  0  0  0  0  0  0  0
  -40.4853   51.6956   52.6484 C   0  0  0  0  0  0  0  0  0  0  0  0
  -40.8195   51.6335   51.1371 C   0  0  0  0  0  0  0  0  0  0  0  0
  -40.7818   53.0338   50.4921 C   0  0  0  0  0  0  0  0  0  0  0  0
  -41.7345   54.0922   51.0609 C   0  0  0  0  0  0  0  0  0  0  0  0
  -32.4748   64.4323   61.0056 C   0  0  0  0  0  0  0  0  0  0  0  0
  -33.9059   64.9200   61.3002 C   0  0  0  0  0  0  0  0  0  0  0  0
  -34.9728   64.4178   60.3413 C   0  0  0  0  0  0  0  0  0  0  0  0
  -35.2121   62.9095   60.4488 C   0  0  0  0  0  0  0  0  0  0  0  0
  -33.9999   61.9632   60.4459 C   0  0  1  0  0  0  0  0  0  0  0  0
  -32.9761   62.5148   59.4731 C   0  0  0  0  0  0  0  0  0  0  0  0
  -35.9383   62.8376   65.9092 C   0  0  0  0  0  0  0  0  0  0  0  0
  -38.2295   63.0388   65.6128 C   0  0  0  0  0  0  0  0  0  0  0  0
  -36.6602   61.5392   66.3649 C   0  0  1  0  0  0  0  0  0  0  0  0
  -39.6982   64.5962   64.2463 C   0  0  0  0  0  0  0  0  0  0  0  0
  -40.9712   65.1112   63.9684 C   0  0  0  0  0  0  0  0  0  0  0  0
  -42.0888   64.7058   64.7172 C   0  0  0  0  0  0  0  0  0  0  0  0
  -41.9479   63.7730   65.7461 C   0  0  0  0  0  0  0  0  0  0  0  0
  -40.6811   63.2514   66.0232 C   0  0  0  0  0  0  0  0  0  0  0  0
  -39.5578   63.6624   65.2802 C   0  0  0  0  0  0  0  0  0  0  0  0
  -31.6652   65.3313   56.2844 H   0  0  0  0  0  0  0  0  0  0  0  0
  -33.6481   65.6222   57.4508 H   0  0  0  0  0  0  0  0  0  0  0  0
  -33.1040   63.5387   56.5904 H   0  0  0  0  0  0  0  0  0  0  0  0
  -36.9900   54.0634   60.7086 H   0  0  0  0  0  0  0  0  0  0  0  0
  -37.5884   57.0236   58.0456 H   0  0  0  0  0  0  0  0  0  0  0  0
  -36.0511   56.9466   58.8545 H   0  0  0  0  0  0  0  0  0  0  0  0
  -33.5720   62.2043   62.5012 H   0  0  0  0  0  0  0  0  0  0  0  0
  -38.7085   57.5125   60.1589 H   0  0  0  0  0  0  0  0  0  0  0  0
  -37.3776   58.6843   59.8065 H   0  0  0  0  0  0  0  0  0  0  0  0
  -37.5175   60.4746   64.2480 H   0  0  0  0  0  0  0  0  0  0  0  0
  -36.3241   56.8209   61.6932 H   0  0  0  0  0  0  0  0  0  0  0  0
  -38.5474   58.8812   62.5053 H   0  0  0  0  0  0  0  0  0  0  0  0
  -37.2383   57.7881   64.4943 H   0  0  0  0  0  0  0  0  0  0  0  0
  -32.7872   58.0895   63.5636 H   0  0  0  0  0  0  0  0  0  0  0  0
  -38.7652   65.6304   62.8379 H   0  0  0  0  0  0  0  0  0  0  0  0
  -31.2419   60.0017   63.2867 H   0  0  0  0  0  0  0  0  0  0  0  0
  -32.5004   61.0518   63.9669 H   0  0  0  0  0  0  0  0  0  0  0  0
  -32.2581   59.5872   66.0663 H   0  0  0  0  0  0  0  0  0  0  0  0
  -31.1565   58.5112   65.2406 H   0  0  0  0  0  0  0  0  0  0  0  0
  -32.6372   57.8872   65.9271 H   0  0  0  0  0  0  0  0  0  0  0  0
  -39.1963   52.6676   58.9735 H   0  0  0  0  0  0  0  0  0  0  0  0
  -38.1455   53.1731   60.3244 H   0  0  0  0  0  0  0  0  0  0  0  0
  -37.3469   51.1156   59.2871 H   0  0  0  0  0  0  0  0  0  0  0  0
  -36.2035   52.4333   59.1314 H   0  0  0  0  0  0  0  0  0  0  0  0
  -36.9880   52.8573   56.8528 H   0  0  0  0  0  0  0  0  0  0  0  0
  -38.1405   51.5162   57.0318 H   0  0  0  0  0  0  0  0  0  0  0  0
  -35.1606   51.2560   57.0576 H   0  0  0  0  0  0  0  0  0  0  0  0
  -36.2622   50.8537   55.7112 H   0  0  0  0  0  0  0  0  0  0  0  0
  -36.2147   49.4831   58.3669 H   0  0  0  0  0  0  0  0  0  0  0  0
  -35.5232   48.8707   56.8541 H   0  0  0  0  0  0  0  0  0  0  0  0
  -38.4270   49.4385   57.3316 H   0  0  0  0  0  0  0  0  0  0  0  0
  -37.6390   47.8373   57.3012 H   0  0  0  0  0  0  0  0  0  0  0  0
  -37.1215   48.1005   54.9740 H   0  0  0  0  0  0  0  0  0  0  0  0
  -37.8782   49.7079   54.9924 H   0  0  0  0  0  0  0  0  0  0  0  0
  -40.0128   48.7269   55.4537 H   0  0  0  0  0  0  0  0  0  0  0  0
  -39.2407   47.1107   55.4408 H   0  0  0  0  0  0  0  0  0  0  0  0
  -40.5008   47.5197   53.4089 H   0  0  0  0  0  0  0  0  0  0  0  0
  -38.7757   47.3142   53.1203 H   0  0  0  0  0  0  0  0  0  0  0  0
  -39.6795   49.1428   51.7787 H   0  0  0  0  0  0  0  0  0  0  0  0
  -38.5029   49.7122   52.9872 H   0  0  0  0  0  0  0  0  0  0  0  0
  -40.2751   50.4967   54.3856 H   0  0  0  0  0  0  0  0  0  0  0  0
  -41.4550   49.9134   53.1661 H   0  0  0  0  0  0  0  0  0  0  0  0
  -39.5128   52.1278   52.7594 H   0  0  0  0  0  0  0  0  0  0  0  0
  -41.2542   52.2798   53.1092 H   0  0  0  0  0  0  0  0  0  0  0  0
  -41.7988   51.2203   51.0142 H   0  0  0  0  0  0  0  0  0  0  0  0
  -40.0850   51.0222   50.6557 H   0  0  0  0  0  0  0  0  0  0  0  0
  -41.0134   52.9166   49.4540 H   0  0  0  0  0  0  0  0  0  0  0  0
  -39.8002   53.4065   50.6981 H   0  0  0  0  0  0  0  0  0  0  0  0
  -42.7465   53.7885   50.8922 H   0  0  0  0  0  0  0  0  0  0  0  0
  -41.5576   55.0291   50.5754 H   0  0  0  0  0  0  0  0  0  0  0  0
  -41.5642   54.1973   52.1120 H   0  0  0  0  0  0  0  0  0  0  0  0
  -31.8186   65.2763   60.9606 H   0  0  0  0  0  0  0  0  0  0  0  0
  -32.1709   63.7666   61.7863 H   0  0  0  0  0  0  0  0  0  0  0  0
  -33.9051   65.9893   61.2634 H   0  0  0  0  0  0  0  0  0  0  0  0
  -34.1616   64.5247   62.2611 H   0  0  0  0  0  0  0  0  0  0  0  0
  -34.6661   64.6439   59.3414 H   0  0  0  0  0  0  0  0  0  0  0  0
  -35.8894   64.9063   60.5983 H   0  0  0  0  0  0  0  0  0  0  0  0
  -35.8308   62.6299   59.6218 H   0  0  0  0  0  0  0  0  0  0  0  0
  -35.6347   62.7843   61.4238 H   0  0  0  0  0  0  0  0  0  0  0  0
  -34.3291   61.0050   60.1017 H   0  0  0  0  0  0  0  0  0  0  0  0
  -35.3945   63.2671   66.7244 H   0  0  0  0  0  0  0  0  0  0  0  0
  -35.2337   62.6427   65.1279 H   0  0  0  0  0  0  0  0  0  0  0  0
  -36.3948   61.3228   67.3786 H   0  0  0  0  0  0  0  0  0  0  0  0
  -41.0892   65.7959   63.2053 H   0  0  0  0  0  0  0  0  0  0  0  0
  -43.0189   65.0997   64.5054 H   0  0  0  0  0  0  0  0  0  0  0  0
  -42.7684   63.4723   66.2951 H   0  0  0  0  0  0  0  0  0  0  0  0
  -40.5679   62.5585   66.7795 H   0  0  0  0  0  0  0  0  0  0  0  0
  1  2  1  0  0  0  0
  1  5  1  0  0  0  0
  1  7  1  0  0  0  0
  2 18  2  0  0  0  0
  2 29  1  0  0  0  0
  3 21  2  0  0  0  0
  4  6  1  0  0  0  0
  4 59  1  0  0  0  0
  4 60  1  0  0  0  0
  4 61  1  0  0  0  0
  5 62  1  0  0  0  0
  6 14  1  0  0  0  0
  7 10  1  0  0  0  0
  7 63  1  0  0  0  0
  7 64  1  0  0  0  0
  8 27  1  0  0  0  0
  8 48  1  0  0  0  0
  8 65  1  0  0  0  0
  9 21  1  0  0  0  0
  9 23  1  0  0  0  0
 10 13  1  0  0  0  0
 10 66  1  0  0  0  0
 10 67  1  0  0  0  0
 11 19  1  0  0  0  0
 11 28  1  0  0  0  0
 11 68  1  0  0  0  0
 12 27  2  0  0  0  0
 13 16  2  0  0  0  0
 13 69  1  0  0  0  0
 14 44  1  0  0  0  0
 14 49  1  0  0  0  0
 15 28  2  0  0  0  0
 16 19  1  0  0  0  0
 16 70  1  0  0  0  0
 17 51  2  0  0  0  0
 17 52  1  0  0  0  0
 19 21  1  0  0  0  0
 19 71  1  1  0  0  0
 20 49  2  0  0  0  0
 22 50  1  0  0  0  0
 22 51  1  0  0  0  0
 23 25  1  0  0  0  0
 23 26  1  0  0  0  0
 23 72  1  6  0  0  0
 24 53  1  0  0  0  0
 24 73  1  0  0  0  0
 25 27  1  0  0  0  0
 25 74  1  0  0  0  0
 25 75  1  0  0  0  0
 26 76  1  0  0  0  0
 26 77  1  0  0  0  0
 26 78  1  0  0  0  0
 28 52  1  0  0  0  0
 29 30  1  0  0  0  0
 29 79  1  0  0  0  0
 29 80  1  0  0  0  0
 30 31  1  0  0  0  0
 30 81  1  0  0  0  0
 30 82  1  0  0  0  0
 31 32  1  0  0  0  0
 31 83  1  0  0  0  0
 31 84  1  0  0  0  0
 32 33  1  0  0  0  0
 32 85  1  0  0  0  0
 32 86  1  0  0  0  0
 33 34  1  0  0  0  0
 33 87  1  0  0  0  0
 33 88  1  0  0  0  0
 34 35  1  0  0  0  0
 34 89  1  0  0  0  0
 34 90  1  0  0  0  0
 35 36  1  0  0  0  0
 35 91  1  0  0  0  0
 35 92  1  0  0  0  0
 36 37  1  0  0  0  0
 36 93  1  0  0  0  0
 36 94  1  0  0  0  0
 37 38  1  0  0  0  0
 37 95  1  0  0  0  0
 37 96  1  0  0  0  0
 38 39  1  0  0  0  0
 38 97  1  0  0  0  0
 38 98  1  0  0  0  0
 39 40  1  0  0  0  0
 39 99  1  0  0  0  0
 39100  1  0  0  0  0
 40 41  1  0  0  0  0
 40101  1  0  0  0  0
 40102  1  0  0  0  0
 41 42  1  0  0  0  0
 41103  1  0  0  0  0
 41104  1  0  0  0  0
 42 43  1  0  0  0  0
 42105  1  0  0  0  0
 42106  1  0  0  0  0
 43107  1  0  0  0  0
 43108  1  0  0  0  0
 43109  1  0  0  0  0
 44 45  1  0  0  0  0
 44110  1  0  0  0  0
 44111  1  0  0  0  0
 45 46  1  0  0  0  0
 45112  1  0  0  0  0
 45113  1  0  0  0  0
 46 47  1  0  0  0  0
 46114  1  0  0  0  0
 46115  1  0  0  0  0
 47 48  1  0  0  0  0
 47116  1  0  0  0  0
 47117  1  0  0  0  0
 48 49  1  0  0  0  0
 48118  1  6  0  0  0
 50 52  1  0  0  0  0
 50119  1  0  0  0  0
 50120  1  0  0  0  0
 51 58  1  0  0  0  0
 52121  1  1  0  0  0
 53 54  2  0  0  0  0
 53 58  1  0  0  0  0
 54 55  1  0  0  0  0
 54122  1  0  0  0  0
 55 56  2  0  0  0  0
 55123  1  0  0  0  0
 56 57  1  0  0  0  0
 56124  1  0  0  0  0
 57 58  2  0  0  0  0
 57125  1  0  0  0  0
M  END
$$$$