/media/chris/experiments/cd1a-new-docking/inputs/ligands/1xz0_ligand.pdb
 OpenBabel07022319323D

125127  0  0  1  0  0  0  0  0999 V2000
  -38.5955   56.2110   59.6981 N   0  0  0  0  0  0  0  0  0  0  0  0
  -39.0895   56.2000   60.9644 C   0  0  0  0  0  0  0  0  0  0  0  0
  -34.9015   57.3291   63.0745 O   0  0  0  0  0  0  0  0  0  0  0  0
  -33.6499   55.1447   58.1099 Si  0  0  0  0  0  0  0  0  0  0  0  0
  -38.8386   55.0778   58.9092 O   0  0  0  0  0  0  0  0  0  0  0  0
  -32.9212   56.7364   57.7475 O   0  0  0  0  0  0  0  0  0  0  0  0
  -37.8277   57.2571   59.0156 C   0  0  0  0  0  0  0  0  0  0  0  0
  -33.3447   59.3288   61.3466 N   0  0  0  0  0  0  0  0  0  0  0  0
  -34.3234   59.2293   64.2555 O   0  0  0  0  0  0  0  0  0  0  0  0
  -37.6379   58.4343   59.9942 C   0  0  0  0  0  0  0  0  0  0  0  0
  -36.8950   59.8150   64.6310 N   0  0  0  0  0  0  0  0  0  0  0  0
  -32.9684   61.5396   61.6403 O   0  0  0  0  0  0  0  0  0  0  0  0
  -36.8790   58.1542   61.3024 C   0  0  0  0  0  0  0  0  0  0  0  0
  -32.8561   57.7015   58.7069 N   0  0  0  0  0  0  0  0  0  0  0  0
  -38.3860   61.0055   63.3930 O   0  0  0  0  0  0  0  0  0  0  0  0
  -37.6390   58.4030   62.6110 C   0  0  0  0  0  0  0  0  0  0  0  0
  -37.7121   63.3810   64.5077 N   0  0  0  0  0  0  0  0  0  0  0  0
  -38.9317   57.1602   61.7181 O   0  0  0  0  0  0  0  0  0  0  0  0
  -36.7890   58.5530   63.8960 C   0  0  1  0  0  0  0  0  0  0  0  0
  -35.0729   57.5250   59.0532 O   0  0  0  0  0  0  0  0  0  0  0  0
  -35.3080   58.3090   63.6770 C   0  0  0  0  0  0  0  0  0  0  0  0
  -35.7326   63.7445   65.4780 O   0  0  0  0  0  0  0  0  0  0  0  0
  -32.9090   58.9936   64.1228 C   0  0  1  0  0  0  0  0  0  0  0  0
  -39.1855   65.7720   64.0841 O   0  0  0  0  0  0  0  0  0  0  0  0
  -32.2928   60.1754   63.3893 C   0  0  0  0  0  0  0  0  0  0  0  0
  -32.1864   58.7248   65.4370 C   0  0  0  0  0  0  0  0  0  0  0  0
  -32.8793   60.3932   62.0164 C   0  0  0  0  0  0  0  0  0  0  0  0
  -37.6390   60.9007   64.3569 C   0  0  0  0  0  0  0  0  0  0  0  0
  -39.8493   54.9625   61.4535 C   0  0  0  0  0  0  0  0  0  0  0  0
  -40.9394   55.2556   62.4934 C   0  0  0  0  0  0  0  0  0  0  0  0
  -40.3195   55.9272   63.7339 C   0  0  0  0  0  0  0  0  0  0  0  0
  -41.3448   56.2421   64.8397 C   0  0  0  0  0  0  0  0  0  0  0  0
  -42.0733   55.0101   65.4085 C   0  0  0  0  0  0  0  0  0  0  0  0
  -41.1128   53.9909   66.0565 C   0  0  0  0  0  0  0  0  0  0  0  0
  -40.0348   53.4279   65.1012 C   0  0  0  0  0  0  0  0  0  0  0  0
  -39.1052   52.4056   65.7653 C   0  0  0  0  0  0  0  0  0  0  0  0
  -38.0092   51.8320   64.8615 C   0  0  0  0  0  0  0  0  0  0  0  0
  -38.6088   51.1218   63.6341 C   0  0  0  0  0  0  0  0  0  0  0  0
  -37.5589   50.5086   62.6951 C   0  0  0  0  0  0  0  0  0  0  0  0
  -36.6595   49.4335   63.3138 C   0  0  0  0  0  0  0  0  0  0  0  0
  -35.6029   48.8516   62.3418 C   0  0  0  0  0  0  0  0  0  0  0  0
  -36.2652   48.2082   61.1066 C   0  0  0  0  0  0  0  0  0  0  0  0
  -35.3357   47.5748   60.0645 C   0  0  0  0  0  0  0  0  0  0  0  0
  -31.5187   58.1881   59.0763 C   0  0  0  0  0  0  0  0  0  0  0  0
  -31.3223   59.6449   58.6159 C   0  0  0  0  0  0  0  0  0  0  0  0
  -32.5647   60.3236   58.0630 C   0  0  0  0  0  0  0  0  0  0  0  0
  -33.6424   60.5564   59.1251 C   0  0  0  0  0  0  0  0  0  0  0  0
  -34.0341   59.3942   60.0529 C   0  0  1  0  0  0  0  0  0  0  0  0
  -34.0178   58.1164   59.2370 C   0  0  0  0  0  0  0  0  0  0  0  0
  -36.0749   62.4189   65.8807 C   0  0  0  0  0  0  0  0  0  0  0  0
  -36.7896   64.2363   64.6302 C   0  0  0  0  0  0  0  0  0  0  0  0
  -37.4607   62.1261   65.2416 C   0  0  1  0  0  0  0  0  0  0  0  0
  -37.9941   66.3139   63.8039 C   0  0  0  0  0  0  0  0  0  0  0  0
  -37.9298   67.6084   63.2718 C   0  0  0  0  0  0  0  0  0  0  0  0
  -36.6920   68.1959   62.9603 C   0  0  0  0  0  0  0  0  0  0  0  0
  -35.5037   67.4992   63.1867 C   0  0  0  0  0  0  0  0  0  0  0  0
  -35.5622   66.2099   63.7232 C   0  0  0  0  0  0  0  0  0  0  0  0
  -36.8016   65.6152   64.0282 C   0  0  0  0  0  0  0  0  0  0  0  0
  -33.5957   54.3246   56.9518 H   0  0  0  0  0  0  0  0  0  0  0  0
  -35.0033   55.3218   58.5015 H   0  0  0  0  0  0  0  0  0  0  0  0
  -32.9295   54.5232   59.1640 H   0  0  0  0  0  0  0  0  0  0  0  0
  -39.3482   54.4305   59.4213 H   0  0  0  0  0  0  0  0  0  0  0  0
  -38.3599   57.5893   58.1488 H   0  0  0  0  0  0  0  0  0  0  0  0
  -36.8764   56.8756   58.7085 H   0  0  0  0  0  0  0  0  0  0  0  0
  -33.2146   58.4408   61.7513 H   0  0  0  0  0  0  0  0  0  0  0  0
  -38.6112   58.7918   60.2584 H   0  0  0  0  0  0  0  0  0  0  0  0
  -37.0223   59.1319   59.4657 H   0  0  0  0  0  0  0  0  0  0  0  0
  -36.3417   59.8774   65.4429 H   0  0  0  0  0  0  0  0  0  0  0  0
  -35.9044   57.8148   61.2996 H   0  0  0  0  0  0  0  0  0  0  0  0
  -38.6687   58.4674   62.6338 H   0  0  0  0  0  0  0  0  0  0  0  0
  -37.2383   57.7881   64.4943 H   0  0  0  0  0  0  0  0  0  0  0  0
  -32.7872   58.0895   63.5636 H   0  0  0  0  0  0  0  0  0  0  0  0
  -39.9705   66.2586   63.9256 H   0  0  0  0  0  0  0  0  0  0  0  0
  -31.2419   60.0017   63.2867 H   0  0  0  0  0  0  0  0  0  0  0  0
  -32.5004   61.0518   63.9669 H   0  0  0  0  0  0  0  0  0  0  0  0
  -32.2581   59.5872   66.0663 H   0  0  0  0  0  0  0  0  0  0  0  0
  -31.1565   58.5112   65.2406 H   0  0  0  0  0  0  0  0  0  0  0  0
  -32.6372   57.8872   65.9271 H   0  0  0  0  0  0  0  0  0  0  0  0
  -39.1432   54.2876   61.8905 H   0  0  0  0  0  0  0  0  0  0  0  0
  -40.3459   54.5524   60.5990 H   0  0  0  0  0  0  0  0  0  0  0  0
  -41.4073   54.3383   62.7840 H   0  0  0  0  0  0  0  0  0  0  0  0
  -41.6653   55.9141   62.0642 H   0  0  0  0  0  0  0  0  0  0  0  0
  -39.8590   56.8434   63.4284 H   0  0  0  0  0  0  0  0  0  0  0  0
  -39.6144   55.2361   64.1464 H   0  0  0  0  0  0  0  0  0  0  0  0
  -42.0792   56.9064   64.4345 H   0  0  0  0  0  0  0  0  0  0  0  0
  -40.7939   56.6698   65.6511 H   0  0  0  0  0  0  0  0  0  0  0  0
  -42.5982   54.5257   64.6118 H   0  0  0  0  0  0  0  0  0  0  0  0
  -42.7389   55.3546   66.1721 H   0  0  0  0  0  0  0  0  0  0  0  0
  -41.6939   53.1714   66.4246 H   0  0  0  0  0  0  0  0  0  0  0  0
  -40.5904   54.5145   66.8298 H   0  0  0  0  0  0  0  0  0  0  0  0
  -39.4413   54.2426   64.7420 H   0  0  0  0  0  0  0  0  0  0  0  0
  -40.5476   52.9211   64.3106 H   0  0  0  0  0  0  0  0  0  0  0  0
  -39.7052   51.5914   66.1145 H   0  0  0  0  0  0  0  0  0  0  0  0
  -38.5982   52.9314   66.5472 H   0  0  0  0  0  0  0  0  0  0  0  0
  -37.4286   51.1291   65.4215 H   0  0  0  0  0  0  0  0  0  0  0  0
  -37.3983   52.6405   64.5180 H   0  0  0  0  0  0  0  0  0  0  0  0
  -39.1819   51.8347   63.0790 H   0  0  0  0  0  0  0  0  0  0  0  0
  -39.2048   50.3136   64.0035 H   0  0  0  0  0  0  0  0  0  0  0  0
  -36.9306   51.3000   62.3434 H   0  0  0  0  0  0  0  0  0  0  0  0
  -38.1116   50.0164   61.9224 H   0  0  0  0  0  0  0  0  0  0  0  0
  -37.2807   48.6312   63.6534 H   0  0  0  0  0  0  0  0  0  0  0  0
  -36.1193   49.9050   64.1081 H   0  0  0  0  0  0  0  0  0  0  0  0
  -35.0297   48.1084   62.8557 H   0  0  0  0  0  0  0  0  0  0  0  0
  -34.9766   49.6523   62.0081 H   0  0  0  0  0  0  0  0  0  0  0  0
  -36.8323   48.9690   60.6123 H   0  0  0  0  0  0  0  0  0  0  0  0
  -36.8408   47.3939   61.4945 H   0  0  0  0  0  0  0  0  0  0  0  0
  -34.7211   48.3335   59.6267 H   0  0  0  0  0  0  0  0  0  0  0  0
  -35.9217   47.1064   59.3016 H   0  0  0  0  0  0  0  0  0  0  0  0
  -34.7155   46.8425   60.5379 H   0  0  0  0  0  0  0  0  0  0  0  0
  -30.7793   57.5702   58.6111 H   0  0  0  0  0  0  0  0  0  0  0  0
  -31.4201   58.1478   60.1410 H   0  0  0  0  0  0  0  0  0  0  0  0
  -30.5737   59.6521   57.8515 H   0  0  0  0  0  0  0  0  0  0  0  0
  -31.0473   60.1972   59.4901 H   0  0  0  0  0  0  0  0  0  0  0  0
  -32.9748   59.7070   57.2906 H   0  0  0  0  0  0  0  0  0  0  0  0
  -32.2675   61.2826   57.6931 H   0  0  0  0  0  0  0  0  0  0  0  0
  -34.5300   60.8604   58.6106 H   0  0  0  0  0  0  0  0  0  0  0  0
  -33.2037   61.2761   59.7843 H   0  0  0  0  0  0  0  0  0  0  0  0
  -35.0289   59.5724   60.4044 H   0  0  0  0  0  0  0  0  0  0  0  0
  -36.1361   62.3576   66.9472 H   0  0  0  0  0  0  0  0  0  0  0  0
  -35.3385   61.7094   65.5657 H   0  0  0  0  0  0  0  0  0  0  0  0
  -38.1558   61.8573   66.0093 H   0  0  0  0  0  0  0  0  0  0  0  0
  -38.8011   68.1363   63.1069 H   0  0  0  0  0  0  0  0  0  0  0  0
  -36.6611   69.1474   62.5621 H   0  0  0  0  0  0  0  0  0  0  0  0
  -34.5937   67.9305   62.9609 H   0  0  0  0  0  0  0  0  0  0  0  0
  -34.6887   65.6887   63.8975 H   0  0  0  0  0  0  0  0  0  0  0  0
  1  2  1  0  0  0  0
  1  5  1  0  0  0  0
  1  7  1  0  0  0  0
  2 18  2  0  0  0  0
  2 29  1  0  0  0  0
  3 21  2  0  0  0  0
  4  6  1  0  0  0  0
  4 59  1  0  0  0  0
  4 60  1  0  0  0  0
  4 61  1  0  0  0  0
  5 62  1  0  0  0  0
  6 14  1  0  0  0  0
  7 10  1  0  0  0  0
  7 63  1  0  0  0  0
  7 64  1  0  0  0  0
  8 27  1  0  0  0  0
  8 48  1  0  0  0  0
  8 65  1  0  0  0  0
  9 21  1  0  0  0  0
  9 23  1  0  0  0  0
 10 13  1  0  0  0  0
 10 66  1  0  0  0  0
 10 67  1  0  0  0  0
 11 19  1  0  0  0  0
 11 28  1  0  0  0  0
 11 68  1  0  0  0  0
 12 27  2  0  0  0  0
 13 16  2  0  0  0  0
 13 69  1  0  0  0  0
 14 44  1  0  0  0  0
 14 49  1  0  0  0  0
 15 28  2  0  0  0  0
 16 19  1  0  0  0  0
 16 70  1  0  0  0  0
 17 51  2  0  0  0  0
 17 52  1  0  0  0  0
 19 21  1  0  0  0  0
 19 71  1  1  0  0  0
 20 49  2  0  0  0  0
 22 50  1  0  0  0  0
 22 51  1  0  0  0  0
 23 25  1  0  0  0  0
 23 26  1  0  0  0  0
 23 72  1  6  0  0  0
 24 53  1  0  0  0  0
 24 73  1  0  0  0  0
 25 27  1  0  0  0  0
 25 74  1  0  0  0  0
 25 75  1  0  0  0  0
 26 76  1  0  0  0  0
 26 77  1  0  0  0  0
 26 78  1  0  0  0  0
 28 52  1  0  0  0  0
 29 30  1  0  0  0  0
 29 79  1  0  0  0  0
 29 80  1  0  0  0  0
 30 31  1  0  0  0  0
 30 81  1  0  0  0  0
 30 82  1  0  0  0  0
 31 32  1  0  0  0  0
 31 83  1  0  0  0  0
 31 84  1  0  0  0  0
 32 33  1  0  0  0  0
 32 85  1  0  0  0  0
 32 86  1  0  0  0  0
 33 34  1  0  0  0  0
 33 87  1  0  0  0  0
 33 88  1  0  0  0  0
 34 35  1  0  0  0  0
 34 89  1  0  0  0  0
 34 90  1  0  0  0  0
 35 36  1  0  0  0  0
 35 91  1  0  0  0  0
 35 92  1  0  0  0  0
 36 37  1  0  0  0  0
 36 93  1  0  0  0  0
 36 94  1  0  0  0  0
 37 38  1  0  0  0  0
 37 95  1  0  0  0  0
 37 96  1  0  0  0  0
 38 39  1  0  0  0  0
 38 97  1  0  0  0  0
 38 98  1  0  0  0  0
 39 40  1  0  0  0  0
 39 99  1  0  0  0  0
 39100  1  0  0  0  0
 40 41  1  0  0  0  0
 40101  1  0  0  0  0
 40102  1  0  0  0  0
 41 42  1  0  0  0  0
 41103  1  0  0  0  0
 41104  1  0  0  0  0
 42 43  1  0  0  0  0
 42105  1  0  0  0  0
 42106  1  0  0  0  0
 43107  1  0  0  0  0
 43108  1  0  0  0  0
 43109  1  0  0  0  0
 44 45  1  0  0  0  0
 44110  1  0  0  0  0
 44111  1  0  0  0  0
 45 46  1  0  0  0  0
 45112  1  0  0  0  0
 45113  1  0  0  0  0
 46 47  1  0  0  0  0
 46114  1  0  0  0  0
 46115  1  0  0  0  0
 47 48  1  0  0  0  0
 47116  1  0  0  0  0
 47117  1  0  0  0  0
 48 49  1  0  0  0  0
 48118  1  1  0  0  0
 50 52  1  0  0  0  0
 50119  1  0  0  0  0
 50120  1  0  0  0  0
 51 58  1  0  0  0  0
 52121  1  1  0  0  0
 53 54  2  0  0  0  0
 53 58  1  0  0  0  0
 54 55  1  0  0  0  0
 54122  1  0  0  0  0
 55 56  2  0  0  0  0
 55123  1  0  0  0  0
 56 57  1  0  0  0  0
 56124  1  0  0  0  0
 57 58  2  0  0  0  0
 57125  1  0  0  0  0
M  END
$$$$