/media/chris/experiments/cd1a-new-docking/inputs/ligands/1xz0_ligand.pdb
 OpenBabel07022319323D

125127  0  0  1  0  0  0  0  0999 V2000
  -37.6214   56.7442   58.0079 N   0  0  0  0  0  0  0  0  0  0  0  0
  -38.2796   55.7686   57.3277 C   0  0  0  0  0  0  0  0  0  0  0  0
  -34.7303   58.7191   62.6838 O   0  0  0  0  0  0  0  0  0  0  0  0
  -32.2770   58.8624   71.8687 Si  0  0  0  0  0  0  0  0  0  0  0  0
  -37.5404   58.0035   57.3972 O   0  0  0  0  0  0  0  0  0  0  0  0
  -31.7227   59.3963   70.2551 O   0  0  0  0  0  0  0  0  0  0  0  0
  -36.9674   56.6757   59.3184 C   0  0  0  0  0  0  0  0  0  0  0  0
  -31.4263   56.2634   67.1008 N   0  0  0  0  0  0  0  0  0  0  0  0
  -34.5507   57.5039   64.6410 O   0  0  0  0  0  0  0  0  0  0  0  0
  -38.0028   57.0570   60.3963 C   0  0  0  0  0  0  0  0  0  0  0  0
  -36.8950   59.8150   64.6310 N   0  0  0  0  0  0  0  0  0  0  0  0
  -33.1376   57.7377   66.9861 O   0  0  0  0  0  0  0  0  0  0  0  0
  -37.5311   57.0701   61.8602 C   0  0  0  0  0  0  0  0  0  0  0  0
  -31.3411   58.4838   69.3183 N   0  0  0  0  0  0  0  0  0  0  0  0
  -34.7636   60.6081   64.5976 O   0  0  0  0  0  0  0  0  0  0  0  0
  -37.6390   58.4030   62.6110 C   0  0  0  0  0  0  0  0  0  0  0  0
  -36.1032   61.5987   67.2398 N   0  0  0  0  0  0  0  0  0  0  0  0
  -38.7801   55.9877   56.2248 O   0  0  0  0  0  0  0  0  0  0  0  0
  -36.7890   58.5530   63.8960 C   0  0  1  0  0  0  0  0  0  0  0  0
  -32.9424   57.0691   70.0251 O   0  0  0  0  0  0  0  0  0  0  0  0
  -35.3080   58.3090   63.6770 C   0  0  0  0  0  0  0  0  0  0  0  0
  -38.1978   62.3745   67.1849 O   0  0  0  0  0  0  0  0  0  0  0  0
  -33.4468   56.6783   64.2242 C   0  0  1  0  0  0  0  0  0  0  0  0
  -34.8124   62.0903   69.7216 O   0  0  0  0  0  0  0  0  0  0  0  0
  -32.1956   57.1481   64.9511 C   0  0  0  0  0  0  0  0  0  0  0  0
  -33.6666   55.1831   64.4183 C   0  0  0  0  0  0  0  0  0  0  0  0
  -32.3055   57.0407   66.4520 C   0  0  0  0  0  0  0  0  0  0  0  0
  -35.9390   60.7142   64.9223 C   0  0  0  0  0  0  0  0  0  0  0  0
  -38.3997   54.3769   57.9577 C   0  0  0  0  0  0  0  0  0  0  0  0
  -37.7695   53.2482   57.1304 C   0  0  0  0  0  0  0  0  0  0  0  0
  -37.9630   51.8972   57.8457 C   0  0  0  0  0  0  0  0  0  0  0  0
  -39.4415   51.5166   58.0517 C   0  0  0  0  0  0  0  0  0  0  0  0
  -39.6637   50.1779   58.7801 C   0  0  0  0  0  0  0  0  0  0  0  0
  -41.1569   49.8274   58.9496 C   0  0  0  0  0  0  0  0  0  0  0  0
  -41.9354   49.6768   57.6219 C   0  0  0  0  0  0  0  0  0  0  0  0
  -43.4193   49.3457   57.8192 C   0  0  0  0  0  0  0  0  0  0  0  0
  -44.2287   49.1702   56.5305 C   0  0  0  0  0  0  0  0  0  0  0  0
  -43.6777   48.0149   55.6748 C   0  0  0  0  0  0  0  0  0  0  0  0
  -44.4378   47.7984   54.3575 C   0  0  0  0  0  0  0  0  0  0  0  0
  -44.4357   48.9826   53.3853 C   0  0  0  0  0  0  0  0  0  0  0  0
  -45.2262   48.7327   52.0767 C   0  0  0  0  0  0  0  0  0  0  0  0
  -45.1680   49.9558   51.1391 C   0  0  0  0  0  0  0  0  0  0  0  0
  -45.7175   51.2804   51.6819 C   0  0  0  0  0  0  0  0  0  0  0  0
  -30.3116   58.9037   68.3561 C   0  0  0  0  0  0  0  0  0  0  0  0
  -28.9970   58.1373   68.5952 C   0  0  0  0  0  0  0  0  0  0  0  0
  -29.0785   57.0111   69.6125 C   0  0  0  0  0  0  0  0  0  0  0  0
  -29.9493   55.8425   69.1433 C   0  0  0  0  0  0  0  0  0  0  0  0
  -31.3408   56.1406   68.5605 C   0  0  1  0  0  0  0  0  0  0  0  0
  -31.9451   57.2851   69.3502 C   0  0  0  0  0  0  0  0  0  0  0  0
  -37.7828   62.4076   65.8199 C   0  0  0  0  0  0  0  0  0  0  0  0
  -37.1060   61.8506   67.9668 C   0  0  0  0  0  0  0  0  0  0  0  0
  -36.3172   61.8913   65.8097 C   0  0  1  0  0  0  0  0  0  0  0  0
  -36.0115   61.8341   70.2586 C   0  0  0  0  0  0  0  0  0  0  0  0
  -36.1349   61.7045   71.6481 C   0  0  0  0  0  0  0  0  0  0  0  0
  -37.3807   61.4264   72.2354 C   0  0  0  0  0  0  0  0  0  0  0  0
  -38.5193   61.2847   71.4404 C   0  0  0  0  0  0  0  0  0  0  0  0
  -38.4026   61.4193   70.0541 C   0  0  0  0  0  0  0  0  0  0  0  0
  -37.1540   61.6894   69.4620 C   0  0  0  0  0  0  0  0  0  0  0  0
  -32.6145   59.9972   72.6526 H   0  0  0  0  0  0  0  0  0  0  0  0
  -31.2385   58.1363   72.5095 H   0  0  0  0  0  0  0  0  0  0  0  0
  -33.4182   58.0296   71.7255 H   0  0  0  0  0  0  0  0  0  0  0  0
  -37.9914   57.9762   56.5388 H   0  0  0  0  0  0  0  0  0  0  0  0
  -36.1450   57.3596   59.3486 H   0  0  0  0  0  0  0  0  0  0  0  0
  -36.5979   55.6872   59.4951 H   0  0  0  0  0  0  0  0  0  0  0  0
  -30.7936   55.7380   66.5596 H   0  0  0  0  0  0  0  0  0  0  0  0
  -38.8107   56.3590   60.3260 H   0  0  0  0  0  0  0  0  0  0  0  0
  -38.2572   58.0741   60.1826 H   0  0  0  0  0  0  0  0  0  0  0  0
  -37.7963   60.0370   64.9592 H   0  0  0  0  0  0  0  0  0  0  0  0
  -37.1595   56.2219   62.3158 H   0  0  0  0  0  0  0  0  0  0  0  0
  -38.2496   59.1642   62.2753 H   0  0  0  0  0  0  0  0  0  0  0  0
  -37.2383   57.7881   64.4943 H   0  0  0  0  0  0  0  0  0  0  0  0
  -33.3422   56.7957   63.1658 H   0  0  0  0  0  0  0  0  0  0  0  0
  -34.0617   62.1832   70.2745 H   0  0  0  0  0  0  0  0  0  0  0  0
  -32.0177   58.1717   64.6953 H   0  0  0  0  0  0  0  0  0  0  0  0
  -31.3917   56.5120   64.6444 H   0  0  0  0  0  0  0  0  0  0  0  0
  -33.7826   54.9720   65.4608 H   0  0  0  0  0  0  0  0  0  0  0  0
  -32.8231   54.6462   64.0374 H   0  0  0  0  0  0  0  0  0  0  0  0
  -34.5485   54.8811   63.8930 H   0  0  0  0  0  0  0  0  0  0  0  0
  -39.4389   54.1568   58.0866 H   0  0  0  0  0  0  0  0  0  0  0  0
  -37.8624   54.4136   58.8822 H   0  0  0  0  0  0  0  0  0  0  0  0
  -36.7235   53.4387   57.0105 H   0  0  0  0  0  0  0  0  0  0  0  0
  -38.2441   53.2087   56.1723 H   0  0  0  0  0  0  0  0  0  0  0  0
  -37.4905   51.9508   58.8042 H   0  0  0  0  0  0  0  0  0  0  0  0
  -37.5289   51.1453   57.2204 H   0  0  0  0  0  0  0  0  0  0  0  0
  -39.9072   51.4547   57.0903 H   0  0  0  0  0  0  0  0  0  0  0  0
  -39.8658   52.2752   58.6756 H   0  0  0  0  0  0  0  0  0  0  0  0
  -39.2148   50.2380   59.7495 H   0  0  0  0  0  0  0  0  0  0  0  0
  -39.2192   49.4095   58.1826 H   0  0  0  0  0  0  0  0  0  0  0  0
  -41.6194   50.6042   59.5220 H   0  0  0  0  0  0  0  0  0  0  0  0
  -41.1924   48.8735   59.4330 H   0  0  0  0  0  0  0  0  0  0  0  0
  -41.4855   48.8906   57.0525 H   0  0  0  0  0  0  0  0  0  0  0  0
  -41.8869   50.6200   57.1191 H   0  0  0  0  0  0  0  0  0  0  0  0
  -43.8630   50.1399   58.3824 H   0  0  0  0  0  0  0  0  0  0  0  0
  -43.4471   48.3989   58.3169 H   0  0  0  0  0  0  0  0  0  0  0  0
  -44.1819   50.0765   55.9636 H   0  0  0  0  0  0  0  0  0  0  0  0
  -45.2395   48.9405   56.7960 H   0  0  0  0  0  0  0  0  0  0  0  0
  -43.7347   47.1137   56.2487 H   0  0  0  0  0  0  0  0  0  0  0  0
  -42.6726   48.2734   55.4144 H   0  0  0  0  0  0  0  0  0  0  0  0
  -45.4556   47.5732   54.5987 H   0  0  0  0  0  0  0  0  0  0  0  0
  -43.9254   47.0063   53.8525 H   0  0  0  0  0  0  0  0  0  0  0  0
  -43.4209   49.2029   53.1272 H   0  0  0  0  0  0  0  0  0  0  0  0
  -44.9216   49.7930   53.8875 H   0  0  0  0  0  0  0  0  0  0  0  0
  -46.2480   48.5302   52.3210 H   0  0  0  0  0  0  0  0  0  0  0  0
  -44.7834   47.9004   51.5707 H   0  0  0  0  0  0  0  0  0  0  0  0
  -45.7247   49.7130   50.2582 H   0  0  0  0  0  0  0  0  0  0  0  0
  -44.1248   50.1334   50.9812 H   0  0  0  0  0  0  0  0  0  0  0  0
  -46.7669   51.1822   51.8668 H   0  0  0  0  0  0  0  0  0  0  0  0
  -45.5530   52.0560   50.9633 H   0  0  0  0  0  0  0  0  0  0  0  0
  -45.2162   51.5274   52.5943 H   0  0  0  0  0  0  0  0  0  0  0  0
  -30.1322   59.9525   68.4692 H   0  0  0  0  0  0  0  0  0  0  0  0
  -30.6586   58.6907   67.3666 H   0  0  0  0  0  0  0  0  0  0  0  0
  -28.2631   58.8376   68.9353 H   0  0  0  0  0  0  0  0  0  0  0  0
  -28.7491   57.6761   67.6621 H   0  0  0  0  0  0  0  0  0  0  0  0
  -29.4906   57.4005   70.5199 H   0  0  0  0  0  0  0  0  0  0  0  0
  -28.0868   56.6347   69.7532 H   0  0  0  0  0  0  0  0  0  0  0  0
  -30.0930   55.1996   69.9864 H   0  0  0  0  0  0  0  0  0  0  0  0
  -29.4065   55.4316   68.3178 H   0  0  0  0  0  0  0  0  0  0  0  0
  -31.9470   55.2682   68.6889 H   0  0  0  0  0  0  0  0  0  0  0  0
  -37.8283   63.4072   65.4409 H   0  0  0  0  0  0  0  0  0  0  0  0
  -38.4162   61.8067   65.2013 H   0  0  0  0  0  0  0  0  0  0  0  0
  -35.6851   62.6269   65.3578 H   0  0  0  0  0  0  0  0  0  0  0  0
  -35.3016   61.8145   72.2469 H   0  0  0  0  0  0  0  0  0  0  0  0
  -37.4543   61.3264   73.2599 H   0  0  0  0  0  0  0  0  0  0  0  0
  -39.4354   61.0830   71.8706 H   0  0  0  0  0  0  0  0  0  0  0  0
  -39.2397   61.3200   69.4587 H   0  0  0  0  0  0  0  0  0  0  0  0
  1  2  1  0  0  0  0
  1  5  1  0  0  0  0
  1  7  1  0  0  0  0
  2 18  2  0  0  0  0
  2 29  1  0  0  0  0
  3 21  2  0  0  0  0
  4  6  1  0  0  0  0
  4 59  1  0  0  0  0
  4 60  1  0  0  0  0
  4 61  1  0  0  0  0
  5 62  1  0  0  0  0
  6 14  1  0  0  0  0
  7 10  1  0  0  0  0
  7 63  1  0  0  0  0
  7 64  1  0  0  0  0
  8 27  1  0  0  0  0
  8 48  1  0  0  0  0
  8 65  1  0  0  0  0
  9 21  1  0  0  0  0
  9 23  1  0  0  0  0
 10 13  1  0  0  0  0
 10 66  1  0  0  0  0
 10 67  1  0  0  0  0
 11 19  1  0  0  0  0
 11 28  1  0  0  0  0
 11 68  1  0  0  0  0
 12 27  2  0  0  0  0
 13 16  2  0  0  0  0
 13 69  1  0  0  0  0
 14 44  1  0  0  0  0
 14 49  1  0  0  0  0
 15 28  2  0  0  0  0
 16 19  1  0  0  0  0
 16 70  1  0  0  0  0
 17 51  2  0  0  0  0
 17 52  1  0  0  0  0
 19 21  1  0  0  0  0
 19 71  1  1  0  0  0
 20 49  2  0  0  0  0
 22 50  1  0  0  0  0
 22 51  1  0  0  0  0
 23 25  1  0  0  0  0
 23 26  1  0  0  0  0
 23 72  1  6  0  0  0
 24 53  1  0  0  0  0
 24 73  1  0  0  0  0
 25 27  1  0  0  0  0
 25 74  1  0  0  0  0
 25 75  1  0  0  0  0
 26 76  1  0  0  0  0
 26 77  1  0  0  0  0
 26 78  1  0  0  0  0
 28 52  1  0  0  0  0
 29 30  1  0  0  0  0
 29 79  1  0  0  0  0
 29 80  1  0  0  0  0
 30 31  1  0  0  0  0
 30 81  1  0  0  0  0
 30 82  1  0  0  0  0
 31 32  1  0  0  0  0
 31 83  1  0  0  0  0
 31 84  1  0  0  0  0
 32 33  1  0  0  0  0
 32 85  1  0  0  0  0
 32 86  1  0  0  0  0
 33 34  1  0  0  0  0
 33 87  1  0  0  0  0
 33 88  1  0  0  0  0
 34 35  1  0  0  0  0
 34 89  1  0  0  0  0
 34 90  1  0  0  0  0
 35 36  1  0  0  0  0
 35 91  1  0  0  0  0
 35 92  1  0  0  0  0
 36 37  1  0  0  0  0
 36 93  1  0  0  0  0
 36 94  1  0  0  0  0
 37 38  1  0  0  0  0
 37 95  1  0  0  0  0
 37 96  1  0  0  0  0
 38 39  1  0  0  0  0
 38 97  1  0  0  0  0
 38 98  1  0  0  0  0
 39 40  1  0  0  0  0
 39 99  1  0  0  0  0
 39100  1  0  0  0  0
 40 41  1  0  0  0  0
 40101  1  0  0  0  0
 40102  1  0  0  0  0
 41 42  1  0  0  0  0
 41103  1  0  0  0  0
 41104  1  0  0  0  0
 42 43  1  0  0  0  0
 42105  1  0  0  0  0
 42106  1  0  0  0  0
 43107  1  0  0  0  0
 43108  1  0  0  0  0
 43109  1  0  0  0  0
 44 45  1  0  0  0  0
 44110  1  0  0  0  0
 44111  1  0  0  0  0
 45 46  1  0  0  0  0
 45112  1  0  0  0  0
 45113  1  0  0  0  0
 46 47  1  0  0  0  0
 46114  1  0  0  0  0
 46115  1  0  0  0  0
 47 48  1  0  0  0  0
 47116  1  0  0  0  0
 47117  1  0  0  0  0
 48 49  1  0  0  0  0
 48118  1  1  0  0  0
 50 52  1  0  0  0  0
 50119  1  0  0  0  0
 50120  1  0  0  0  0
 51 58  1  0  0  0  0
 52121  1  6  0  0  0
 53 54  2  0  0  0  0
 53 58  1  0  0  0  0
 54 55  1  0  0  0  0
 54122  1  0  0  0  0
 55 56  2  0  0  0  0
 55123  1  0  0  0  0
 56 57  1  0  0  0  0
 56124  1  0  0  0  0
 57 58  2  0  0  0  0
 57125  1  0  0  0  0
M  END
$$$$