/media/chris/experiments/cd1a-new-docking/inputs/ligands/1xz0_ligand.pdb
 OpenBabel07022319323D

125127  0  0  1  0  0  0  0  0999 V2000
  -37.5111   55.1115   60.7483 N   0  0  0  0  0  0  0  0  0  0  0  0
  -37.0028   54.0269   60.1058 C   0  0  0  0  0  0  0  0  0  0  0  0
  -34.8323   58.2135   62.5576 O   0  0  0  0  0  0  0  0  0  0  0  0
  -27.4990   56.6433   71.1820 Si  0  0  0  0  0  0  0  0  0  0  0  0
  -37.4232   55.1228   62.1475 O   0  0  0  0  0  0  0  0  0  0  0  0
  -28.4409   57.6299   70.0265 O   0  0  0  0  0  0  0  0  0  0  0  0
  -38.1532   56.3024   60.1833 C   0  0  0  0  0  0  0  0  0  0  0  0
  -30.3100   56.6855   66.0936 N   0  0  0  0  0  0  0  0  0  0  0  0
  -34.4223   58.1136   64.8296 O   0  0  0  0  0  0  0  0  0  0  0  0
  -39.1837   56.8269   61.2043 C   0  0  0  0  0  0  0  0  0  0  0  0
  -36.8950   59.8150   64.6310 N   0  0  0  0  0  0  0  0  0  0  0  0
  -30.2570   57.1345   63.8775 O   0  0  0  0  0  0  0  0  0  0  0  0
  -38.6590   57.2580   62.5844 C   0  0  0  0  0  0  0  0  0  0  0  0
  -28.9853   57.0609   68.9148 N   0  0  0  0  0  0  0  0  0  0  0  0
  -37.9636   61.4521   65.7933 O   0  0  0  0  0  0  0  0  0  0  0  0
  -37.6390   58.4030   62.6110 C   0  0  0  0  0  0  0  0  0  0  0  0
  -39.7423   59.3277   66.5994 N   0  0  0  0  0  0  0  0  0  0  0  0
  -37.0282   53.9440   58.8780 O   0  0  0  0  0  0  0  0  0  0  0  0
  -36.7890   58.5530   63.8960 C   0  0  1  0  0  0  0  0  0  0  0  0
  -30.5227   58.7014   68.8121 O   0  0  0  0  0  0  0  0  0  0  0  0
  -35.3080   58.3090   63.6770 C   0  0  0  0  0  0  0  0  0  0  0  0
  -39.7831   57.2983   65.6658 O   0  0  0  0  0  0  0  0  0  0  0  0
  -33.2747   57.2469   64.7542 C   0  0  1  0  0  0  0  0  0  0  0  0
  -39.4650   59.2592   69.4378 O   0  0  0  0  0  0  0  0  0  0  0  0
  -32.0300   58.0736   65.0398 C   0  0  0  0  0  0  0  0  0  0  0  0
  -33.3438   56.0255   65.6626 C   0  0  0  0  0  0  0  0  0  0  0  0
  -30.7550   57.2698   64.9716 C   0  0  0  0  0  0  0  0  0  0  0  0
  -37.9718   60.3782   65.2060 C   0  0  0  0  0  0  0  0  0  0  0  0
  -36.3954   52.8906   60.9352 C   0  0  0  0  0  0  0  0  0  0  0  0
  -37.3907   51.7927   61.3343 C   0  0  0  0  0  0  0  0  0  0  0  0
  -36.6800   50.7155   62.1761 C   0  0  0  0  0  0  0  0  0  0  0  0
  -36.0769   51.2573   63.4860 C   0  0  0  0  0  0  0  0  0  0  0  0
  -37.1014   51.8728   64.4574 C   0  0  0  0  0  0  0  0  0  0  0  0
  -38.1729   50.8627   64.9187 C   0  0  0  0  0  0  0  0  0  0  0  0
  -39.2320   51.4462   65.8828 C   0  0  0  0  0  0  0  0  0  0  0  0
  -40.0417   52.5974   65.2751 C   0  0  0  0  0  0  0  0  0  0  0  0
  -39.2205   53.8087   64.8219 C   0  0  0  0  0  0  0  0  0  0  0  0
  -40.1231   54.9140   64.2439 C   0  0  0  0  0  0  0  0  0  0  0  0
  -40.9558   54.4677   63.0325 C   0  0  0  0  0  0  0  0  0  0  0  0
  -41.9348   53.3165   63.2855 C   0  0  0  0  0  0  0  0  0  0  0  0
  -43.0140   53.6224   64.3538 C   0  0  0  0  0  0  0  0  0  0  0  0
  -43.8919   54.8219   63.9427 C   0  0  0  0  0  0  0  0  0  0  0  0
  -44.6933   54.6894   62.6421 C   0  0  0  0  0  0  0  0  0  0  0  0
  -28.2830   55.9018   68.3446 C   0  0  0  0  0  0  0  0  0  0  0  0
  -29.1123   54.6170   68.5294 C   0  0  0  0  0  0  0  0  0  0  0  0
  -30.5168   54.8238   69.0720 C   0  0  0  0  0  0  0  0  0  0  0  0
  -31.4355   55.5569   68.0911 C   0  0  0  0  0  0  0  0  0  0  0  0
  -30.9269   56.8415   67.4158 C   0  0  1  0  0  0  0  0  0  0  0  0
  -30.1096   57.6142   68.4325 C   0  0  0  0  0  0  0  0  0  0  0  0
  -39.2954   58.1455   64.6261 C   0  0  0  0  0  0  0  0  0  0  0  0
  -40.0100   58.1145   66.8320 C   0  0  0  0  0  0  0  0  0  0  0  0
  -39.2667   59.5788   65.2257 C   0  0  1  0  0  0  0  0  0  0  0  0
  -40.2661   58.1898   69.3577 C   0  0  0  0  0  0  0  0  0  0  0  0
  -40.8332   57.6602   70.5242 C   0  0  0  0  0  0  0  0  0  0  0  0
  -41.6698   56.5327   70.4678 C   0  0  0  0  0  0  0  0  0  0  0  0
  -41.9568   55.9279   69.2428 C   0  0  0  0  0  0  0  0  0  0  0  0
  -41.3986   56.4563   68.0755 C   0  0  0  0  0  0  0  0  0  0  0  0
  -40.5529   57.5808   68.1298 C   0  0  0  0  0  0  0  0  0  0  0  0
  -27.0442   57.4662   72.2462 H   0  0  0  0  0  0  0  0  0  0  0  0
  -26.3830   56.0711   70.5160 H   0  0  0  0  0  0  0  0  0  0  0  0
  -28.3215   55.6090   71.7017 H   0  0  0  0  0  0  0  0  0  0  0  0
  -36.9903   54.3095   62.4508 H   0  0  0  0  0  0  0  0  0  0  0  0
  -38.6472   56.0479   59.2689 H   0  0  0  0  0  0  0  0  0  0  0  0
  -37.4204   57.0549   59.9791 H   0  0  0  0  0  0  0  0  0  0  0  0
  -29.5131   56.1113   66.0254 H   0  0  0  0  0  0  0  0  0  0  0  0
  -39.9020   56.0500   61.3628 H   0  0  0  0  0  0  0  0  0  0  0  0
  -39.5692   57.7240   60.7666 H   0  0  0  0  0  0  0  0  0  0  0  0
  -36.0569   60.3245   64.7164 H   0  0  0  0  0  0  0  0  0  0  0  0
  -38.9782   56.7985   63.4515 H   0  0  0  0  0  0  0  0  0  0  0  0
  -37.5247   59.0434   61.8099 H   0  0  0  0  0  0  0  0  0  0  0  0
  -37.2383   57.7881   64.4943 H   0  0  0  0  0  0  0  0  0  0  0  0
  -33.2463   56.8403   63.7649 H   0  0  0  0  0  0  0  0  0  0  0  0
  -39.2874   59.6501   70.2706 H   0  0  0  0  0  0  0  0  0  0  0  0
  -32.1168   58.4914   66.0211 H   0  0  0  0  0  0  0  0  0  0  0  0
  -31.9702   58.8299   64.2853 H   0  0  0  0  0  0  0  0  0  0  0  0
  -33.3759   56.3421   66.6841 H   0  0  0  0  0  0  0  0  0  0  0  0
  -32.4793   55.4148   65.5054 H   0  0  0  0  0  0  0  0  0  0  0  0
  -34.2246   55.4619   65.4360 H   0  0  0  0  0  0  0  0  0  0  0  0
  -35.9856   53.3116   61.8295 H   0  0  0  0  0  0  0  0  0  0  0  0
  -35.6576   52.4230   60.3171 H   0  0  0  0  0  0  0  0  0  0  0  0
  -37.7944   51.3428   60.4513 H   0  0  0  0  0  0  0  0  0  0  0  0
  -38.1784   52.2272   61.9136 H   0  0  0  0  0  0  0  0  0  0  0  0
  -35.8911   50.2932   61.5894 H   0  0  0  0  0  0  0  0  0  0  0  0
  -37.4183   49.9897   62.4464 H   0  0  0  0  0  0  0  0  0  0  0  0
  -35.3593   52.0108   63.2364 H   0  0  0  0  0  0  0  0  0  0  0  0
  -35.6461   50.4183   63.9913 H   0  0  0  0  0  0  0  0  0  0  0  0
  -37.5899   52.6885   63.9667 H   0  0  0  0  0  0  0  0  0  0  0  0
  -36.5670   52.1938   65.3270 H   0  0  0  0  0  0  0  0  0  0  0  0
  -37.6782   50.0543   65.4155 H   0  0  0  0  0  0  0  0  0  0  0  0
  -38.6990   50.5545   64.0395 H   0  0  0  0  0  0  0  0  0  0  0  0
  -38.7320   51.8080   66.7569 H   0  0  0  0  0  0  0  0  0  0  0  0
  -39.9217   50.6596   66.1072 H   0  0  0  0  0  0  0  0  0  0  0  0
  -40.7445   52.9309   66.0097 H   0  0  0  0  0  0  0  0  0  0  0  0
  -40.4987   52.2030   64.3916 H   0  0  0  0  0  0  0  0  0  0  0  0
  -38.5263   53.4971   64.0696 H   0  0  0  0  0  0  0  0  0  0  0  0
  -38.7059   54.2043   65.6725 H   0  0  0  0  0  0  0  0  0  0  0  0
  -39.5029   55.7324   63.9432 H   0  0  0  0  0  0  0  0  0  0  0  0
  -40.8151   55.1841   65.0139 H   0  0  0  0  0  0  0  0  0  0  0  0
  -40.2784   54.1600   62.2636 H   0  0  0  0  0  0  0  0  0  0  0  0
  -41.5597   55.3105   62.7680 H   0  0  0  0  0  0  0  0  0  0  0  0
  -41.3742   52.4647   63.6095 H   0  0  0  0  0  0  0  0  0  0  0  0
  -42.4533   53.1466   62.3651 H   0  0  0  0  0  0  0  0  0  0  0  0
  -42.5309   53.8470   65.2817 H   0  0  0  0  0  0  0  0  0  0  0  0
  -43.6439   52.7629   64.4505 H   0  0  0  0  0  0  0  0  0  0  0  0
  -43.2492   55.6712   63.8400 H   0  0  0  0  0  0  0  0  0  0  0  0
  -44.6289   54.9021   64.7143 H   0  0  0  0  0  0  0  0  0  0  0  0
  -44.0196   54.6036   61.8153 H   0  0  0  0  0  0  0  0  0  0  0  0
  -45.3086   55.5551   62.5126 H   0  0  0  0  0  0  0  0  0  0  0  0
  -45.3109   53.8170   62.6910 H   0  0  0  0  0  0  0  0  0  0  0  0
  -27.3403   55.7852   68.8372 H   0  0  0  0  0  0  0  0  0  0  0  0
  -28.1370   56.0691   67.2979 H   0  0  0  0  0  0  0  0  0  0  0  0
  -28.5862   53.9786   69.2081 H   0  0  0  0  0  0  0  0  0  0  0  0
  -29.2311   54.1980   67.5520 H   0  0  0  0  0  0  0  0  0  0  0  0
  -30.4531   55.3973   69.9731 H   0  0  0  0  0  0  0  0  0  0  0  0
  -30.9392   53.8557   69.2435 H   0  0  0  0  0  0  0  0  0  0  0  0
  -32.3252   55.8147   68.6268 H   0  0  0  0  0  0  0  0  0  0  0  0
  -31.5502   54.8676   67.2808 H   0  0  0  0  0  0  0  0  0  0  0  0
  -31.7776   57.4259   67.1335 H   0  0  0  0  0  0  0  0  0  0  0  0
  -39.9480   58.1091   63.7790 H   0  0  0  0  0  0  0  0  0  0  0  0
  -38.3263   57.8395   64.2911 H   0  0  0  0  0  0  0  0  0  0  0  0
  -39.8532   60.2314   64.6133 H   0  0  0  0  0  0  0  0  0  0  0  0
  -40.6344   58.1031   71.4349 H   0  0  0  0  0  0  0  0  0  0  0  0
  -42.0742   56.1496   71.3366 H   0  0  0  0  0  0  0  0  0  0  0  0
  -42.5732   55.1014   69.1997 H   0  0  0  0  0  0  0  0  0  0  0  0
  -41.6082   56.0181   67.1650 H   0  0  0  0  0  0  0  0  0  0  0  0
  1  2  1  0  0  0  0
  1  5  1  0  0  0  0
  1  7  1  0  0  0  0
  2 18  2  0  0  0  0
  2 29  1  0  0  0  0
  3 21  2  0  0  0  0
  4  6  1  0  0  0  0
  4 59  1  0  0  0  0
  4 60  1  0  0  0  0
  4 61  1  0  0  0  0
  5 62  1  0  0  0  0
  6 14  1  0  0  0  0
  7 10  1  0  0  0  0
  7 63  1  0  0  0  0
  7 64  1  0  0  0  0
  8 27  1  0  0  0  0
  8 48  1  0  0  0  0
  8 65  1  0  0  0  0
  9 21  1  0  0  0  0
  9 23  1  0  0  0  0
 10 13  1  0  0  0  0
 10 66  1  0  0  0  0
 10 67  1  0  0  0  0
 11 19  1  0  0  0  0
 11 28  1  0  0  0  0
 11 68  1  0  0  0  0
 12 27  2  0  0  0  0
 13 16  2  0  0  0  0
 13 69  1  0  0  0  0
 14 44  1  0  0  0  0
 14 49  1  0  0  0  0
 15 28  2  0  0  0  0
 16 19  1  0  0  0  0
 16 70  1  0  0  0  0
 17 51  2  0  0  0  0
 17 52  1  0  0  0  0
 19 21  1  0  0  0  0
 19 71  1  1  0  0  0
 20 49  2  0  0  0  0
 22 50  1  0  0  0  0
 22 51  1  0  0  0  0
 23 25  1  0  0  0  0
 23 26  1  0  0  0  0
 23 72  1  6  0  0  0
 24 53  1  0  0  0  0
 24 73  1  0  0  0  0
 25 27  1  0  0  0  0
 25 74  1  0  0  0  0
 25 75  1  0  0  0  0
 26 76  1  0  0  0  0
 26 77  1  0  0  0  0
 26 78  1  0  0  0  0
 28 52  1  0  0  0  0
 29 30  1  0  0  0  0
 29 79  1  0  0  0  0
 29 80  1  0  0  0  0
 30 31  1  0  0  0  0
 30 81  1  0  0  0  0
 30 82  1  0  0  0  0
 31 32  1  0  0  0  0
 31 83  1  0  0  0  0
 31 84  1  0  0  0  0
 32 33  1  0  0  0  0
 32 85  1  0  0  0  0
 32 86  1  0  0  0  0
 33 34  1  0  0  0  0
 33 87  1  0  0  0  0
 33 88  1  0  0  0  0
 34 35  1  0  0  0  0
 34 89  1  0  0  0  0
 34 90  1  0  0  0  0
 35 36  1  0  0  0  0
 35 91  1  0  0  0  0
 35 92  1  0  0  0  0
 36 37  1  0  0  0  0
 36 93  1  0  0  0  0
 36 94  1  0  0  0  0
 37 38  1  0  0  0  0
 37 95  1  0  0  0  0
 37 96  1  0  0  0  0
 38 39  1  0  0  0  0
 38 97  1  0  0  0  0
 38 98  1  0  0  0  0
 39 40  1  0  0  0  0
 39 99  1  0  0  0  0
 39100  1  0  0  0  0
 40 41  1  0  0  0  0
 40101  1  0  0  0  0
 40102  1  0  0  0  0
 41 42  1  0  0  0  0
 41103  1  0  0  0  0
 41104  1  0  0  0  0
 42 43  1  0  0  0  0
 42105  1  0  0  0  0
 42106  1  0  0  0  0
 43107  1  0  0  0  0
 43108  1  0  0  0  0
 43109  1  0  0  0  0
 44 45  1  0  0  0  0
 44110  1  0  0  0  0
 44111  1  0  0  0  0
 45 46  1  0  0  0  0
 45112  1  0  0  0  0
 45113  1  0  0  0  0
 46 47  1  0  0  0  0
 46114  1  0  0  0  0
 46115  1  0  0  0  0
 47 48  1  0  0  0  0
 47116  1  0  0  0  0
 47117  1  0  0  0  0
 48 49  1  0  0  0  0
 48118  1  6  0  0  0
 50 52  1  0  0  0  0
 50119  1  0  0  0  0
 50120  1  0  0  0  0
 51 58  1  0  0  0  0
 52121  1  6  0  0  0
 53 54  2  0  0  0  0
 53 58  1  0  0  0  0
 54 55  1  0  0  0  0
 54122  1  0  0  0  0
 55 56  2  0  0  0  0
 55123  1  0  0  0  0
 56 57  1  0  0  0  0
 56124  1  0  0  0  0
 57 58  2  0  0  0  0
 57125  1  0  0  0  0
M  END
$$$$