/media/chris/experiments/cd1a-new-docking/inputs/ligands/1xz0_ligand.pdb
 OpenBabel07022319323D

125127  0  0  1  0  0  0  0  0999 V2000
  -40.2151   56.1065   59.1308 N   0  0  0  0  0  0  0  0  0  0  0  0
  -41.1076   56.7252   58.3133 C   0  0  0  0  0  0  0  0  0  0  0  0
  -34.6103   59.1028   63.0674 O   0  0  0  0  0  0  0  0  0  0  0  0
  -33.9830   60.2183   57.2806 Si  0  0  0  0  0  0  0  0  0  0  0  0
  -39.3581   55.1655   58.5430 O   0  0  0  0  0  0  0  0  0  0  0  0
  -32.4733   60.7024   58.1067 O   0  0  0  0  0  0  0  0  0  0  0  0
  -40.0082   56.2806   60.5719 C   0  0  0  0  0  0  0  0  0  0  0  0
  -32.5243   59.0166   62.2308 N   0  0  0  0  0  0  0  0  0  0  0  0
  -34.6971   57.0605   64.1450 O   0  0  0  0  0  0  0  0  0  0  0  0
  -38.5576   56.7536   60.7988 C   0  0  0  0  0  0  0  0  0  0  0  0
  -36.8950   59.8150   64.6310 N   0  0  0  0  0  0  0  0  0  0  0  0
  -32.2850   59.4068   64.4457 O   0  0  0  0  0  0  0  0  0  0  0  0
  -38.1064   56.9875   62.2504 C   0  0  0  0  0  0  0  0  0  0  0  0
  -32.2024   60.2608   59.3667 N   0  0  0  0  0  0  0  0  0  0  0  0
  -36.5186   59.1872   66.7844 O   0  0  0  0  0  0  0  0  0  0  0  0
  -37.6390   58.4030   62.6110 C   0  0  0  0  0  0  0  0  0  0  0  0
  -37.5622   61.4562   67.8342 N   0  0  0  0  0  0  0  0  0  0  0  0
  -41.1560   56.4662   57.1110 O   0  0  0  0  0  0  0  0  0  0  0  0
  -36.7890   58.5530   63.8960 C   0  0  1  0  0  0  0  0  0  0  0  0
  -34.1858   61.0476   60.0827 O   0  0  0  0  0  0  0  0  0  0  0  0
  -35.3080   58.3090   63.6770 C   0  0  0  0  0  0  0  0  0  0  0  0
  -39.0286   62.7350   66.7359 O   0  0  0  0  0  0  0  0  0  0  0  0
  -33.6005   56.4517   63.4374 C   0  0  1  0  0  0  0  0  0  0  0  0
  -37.7901   61.0073   70.5182 O   0  0  0  0  0  0  0  0  0  0  0  0
  -32.3188   57.1721   63.8282 C   0  0  0  0  0  0  0  0  0  0  0  0
  -33.4709   54.9478   63.6449 C   0  0  0  0  0  0  0  0  0  0  0  0
  -32.3448   58.6461   63.5070 C   0  0  0  0  0  0  0  0  0  0  0  0
  -36.7626   60.0473   65.9485 C   0  0  0  0  0  0  0  0  0  0  0  0
  -42.0612   57.7663   58.9089 C   0  0  0  0  0  0  0  0  0  0  0  0
  -41.9308   59.1693   58.3006 C   0  0  0  0  0  0  0  0  0  0  0  0
  -42.9192   60.1350   58.9824 C   0  0  0  0  0  0  0  0  0  0  0  0
  -42.6819   60.2901   60.4966 C   0  0  0  0  0  0  0  0  0  0  0  0
  -41.2967   60.8470   60.8749 C   0  0  0  0  0  0  0  0  0  0  0  0
  -41.0391   62.2561   60.3010 C   0  0  0  0  0  0  0  0  0  0  0  0
  -39.6508   62.8448   60.6441 C   0  0  0  0  0  0  0  0  0  0  0  0
  -39.4275   64.2513   60.0767 C   0  0  0  0  0  0  0  0  0  0  0  0
  -40.4056   65.3211   60.5726 C   0  0  0  0  0  0  0  0  0  0  0  0
  -41.8606   64.9538   60.2287 C   0  0  0  0  0  0  0  0  0  0  0  0
  -42.1205   64.7822   58.7244 C   0  0  0  0  0  0  0  0  0  0  0  0
  -43.5601   64.4325   58.3332 C   0  0  0  0  0  0  0  0  0  0  0  0
  -44.6077   65.4963   58.7464 C   0  0  0  0  0  0  0  0  0  0  0  0
  -46.0335   65.0734   58.3385 C   0  0  0  0  0  0  0  0  0  0  0  0
  -46.2911   64.8284   56.8469 C   0  0  0  0  0  0  0  0  0  0  0  0
  -30.9777   59.4679   59.5486 C   0  0  0  0  0  0  0  0  0  0  0  0
  -29.9396   60.2502   60.3751 C   0  0  0  0  0  0  0  0  0  0  0  0
  -30.4373   61.5553   60.9741 C   0  0  0  0  0  0  0  0  0  0  0  0
  -31.4958   61.3498   62.0609 C   0  0  0  0  0  0  0  0  0  0  0  0
  -32.6756   60.4045   61.7793 C   0  0  1  0  0  0  0  0  0  0  0  0
  -33.0822   60.5806   60.3293 C   0  0  0  0  0  0  0  0  0  0  0  0
  -38.0981   62.3368   65.7298 C   0  0  0  0  0  0  0  0  0  0  0  0
  -38.6206   62.1316   67.9798 C   0  0  0  0  0  0  0  0  0  0  0  0
  -37.0426   61.4554   66.4535 C   0  0  1  0  0  0  0  0  0  0  0  0
  -38.8800   61.7835   70.4821 C   0  0  0  0  0  0  0  0  0  0  0  0
  -39.5818   62.0476   71.6656 C   0  0  0  0  0  0  0  0  0  0  0  0
  -40.7341   62.8516   71.6528 C   0  0  0  0  0  0  0  0  0  0  0  0
  -41.1921   63.4088   70.4576 C   0  0  0  0  0  0  0  0  0  0  0  0
  -40.4919   63.1535   69.2753 C   0  0  0  0  0  0  0  0  0  0  0  0
  -39.3418   62.3411   69.2836 C   0  0  0  0  0  0  0  0  0  0  0  0
  -34.0257   60.8073   55.9892 H   0  0  0  0  0  0  0  0  0  0  0  0
  -35.0997   60.6588   58.0390 H   0  0  0  0  0  0  0  0  0  0  0  0
  -34.0226   58.8042   57.1574 H   0  0  0  0  0  0  0  0  0  0  0  0
  -39.5496   55.1020   57.5942 H   0  0  0  0  0  0  0  0  0  0  0  0
  -40.1684   55.3502   61.0755 H   0  0  0  0  0  0  0  0  0  0  0  0
  -40.6964   57.0028   60.9588 H   0  0  0  0  0  0  0  0  0  0  0  0
  -32.5568   58.3074   61.5487 H   0  0  0  0  0  0  0  0  0  0  0  0
  -38.4354   57.6770   60.2723 H   0  0  0  0  0  0  0  0  0  0  0  0
  -37.9494   55.9448   60.4510 H   0  0  0  0  0  0  0  0  0  0  0  0
  -37.0915   60.6076   64.0811 H   0  0  0  0  0  0  0  0  0  0  0  0
  -38.1176   56.2279   62.9488 H   0  0  0  0  0  0  0  0  0  0  0  0
  -37.8799   59.2173   62.0245 H   0  0  0  0  0  0  0  0  0  0  0  0
  -37.2383   57.7881   64.4943 H   0  0  0  0  0  0  0  0  0  0  0  0
  -33.7969   56.5590   62.3911 H   0  0  0  0  0  0  0  0  0  0  0  0
  -37.4997   60.6450   71.3320 H   0  0  0  0  0  0  0  0  0  0  0  0
  -31.5024   56.7236   63.3017 H   0  0  0  0  0  0  0  0  0  0  0  0
  -32.2122   57.0792   64.8888 H   0  0  0  0  0  0  0  0  0  0  0  0
  -33.2714   54.7459   64.6765 H   0  0  0  0  0  0  0  0  0  0  0  0
  -32.6671   54.5731   63.0462 H   0  0  0  0  0  0  0  0  0  0  0  0
  -34.3833   54.4682   63.3576 H   0  0  0  0  0  0  0  0  0  0  0  0
  -41.8653   57.8374   59.9584 H   0  0  0  0  0  0  0  0  0  0  0  0
  -43.0535   57.4307   58.6907 H   0  0  0  0  0  0  0  0  0  0  0  0
  -42.1466   59.1227   57.2536 H   0  0  0  0  0  0  0  0  0  0  0  0
  -40.9330   59.5252   58.4507 H   0  0  0  0  0  0  0  0  0  0  0  0
  -43.9120   59.7657   58.8314 H   0  0  0  0  0  0  0  0  0  0  0  0
  -42.7727   61.0985   58.5407 H   0  0  0  0  0  0  0  0  0  0  0  0
  -42.7903   59.3278   60.9517 H   0  0  0  0  0  0  0  0  0  0  0  0
  -43.4004   61.0025   60.8446 H   0  0  0  0  0  0  0  0  0  0  0  0
  -40.5471   60.1827   60.4984 H   0  0  0  0  0  0  0  0  0  0  0  0
  -41.2615   60.9232   61.9416 H   0  0  0  0  0  0  0  0  0  0  0  0
  -41.7869   62.9163   60.6881 H   0  0  0  0  0  0  0  0  0  0  0  0
  -41.0746   62.1618   59.2358 H   0  0  0  0  0  0  0  0  0  0  0  0
  -38.8994   62.1954   60.2459 H   0  0  0  0  0  0  0  0  0  0  0  0
  -39.5957   62.9222   61.7099 H   0  0  0  0  0  0  0  0  0  0  0  0
  -39.5117   64.1951   59.0115 H   0  0  0  0  0  0  0  0  0  0  0  0
  -38.4594   64.5563   60.4153 H   0  0  0  0  0  0  0  0  0  0  0  0
  -40.1636   66.2553   60.1104 H   0  0  0  0  0  0  0  0  0  0  0  0
  -40.3180   65.3905   61.6368 H   0  0  0  0  0  0  0  0  0  0  0  0
  -42.4995   65.7303   60.5945 H   0  0  0  0  0  0  0  0  0  0  0  0
  -42.0590   64.0080   60.6880 H   0  0  0  0  0  0  0  0  0  0  0  0
  -41.4839   63.9993   58.3683 H   0  0  0  0  0  0  0  0  0  0  0  0
  -41.9229   65.7371   58.2840 H   0  0  0  0  0  0  0  0  0  0  0  0
  -43.8195   63.5065   58.8023 H   0  0  0  0  0  0  0  0  0  0  0  0
  -43.5832   64.3776   57.2649 H   0  0  0  0  0  0  0  0  0  0  0  0
  -44.3695   66.4231   58.2676 H   0  0  0  0  0  0  0  0  0  0  0  0
  -44.5796   65.5994   59.8110 H   0  0  0  0  0  0  0  0  0  0  0  0
  -46.7022   65.8450   58.6584 H   0  0  0  0  0  0  0  0  0  0  0  0
  -46.1834   64.1220   58.8046 H   0  0  0  0  0  0  0  0  0  0  0  0
  -46.1594   65.7429   56.3073 H   0  0  0  0  0  0  0  0  0  0  0  0
  -47.2919   64.4750   56.7111 H   0  0  0  0  0  0  0  0  0  0  0  0
  -45.6017   64.0962   56.4814 H   0  0  0  0  0  0  0  0  0  0  0  0
  -30.5623   59.2384   58.5896 H   0  0  0  0  0  0  0  0  0  0  0  0
  -31.2255   58.5677   60.0712 H   0  0  0  0  0  0  0  0  0  0  0  0
  -29.1100   60.4741   59.7374 H   0  0  0  0  0  0  0  0  0  0  0  0
  -29.6860   59.6219   61.2032 H   0  0  0  0  0  0  0  0  0  0  0  0
  -30.8625   62.1491   60.1920 H   0  0  0  0  0  0  0  0  0  0  0  0
  -29.5988   62.0378   61.4313 H   0  0  0  0  0  0  0  0  0  0  0  0
  -31.9096   62.3114   62.2822 H   0  0  0  0  0  0  0  0  0  0  0  0
  -30.9620   60.8672   62.8528 H   0  0  0  0  0  0  0  0  0  0  0  0
  -33.4902   60.6955   62.4090 H   0  0  0  0  0  0  0  0  0  0  0  0
  -37.6310   63.1950   65.2938 H   0  0  0  0  0  0  0  0  0  0  0  0
  -38.5798   61.8031   64.9373 H   0  0  0  0  0  0  0  0  0  0  0  0
  -36.0677   61.8667   66.2942 H   0  0  0  0  0  0  0  0  0  0  0  0
  -39.2487   61.6473   72.5566 H   0  0  0  0  0  0  0  0  0  0  0  0
  -41.2445   63.0310   72.5316 H   0  0  0  0  0  0  0  0  0  0  0  0
  -42.0367   64.0016   70.4473 H   0  0  0  0  0  0  0  0  0  0  0  0
  -40.8209   63.5643   68.3876 H   0  0  0  0  0  0  0  0  0  0  0  0
  1  2  1  0  0  0  0
  1  5  1  0  0  0  0
  1  7  1  0  0  0  0
  2 18  2  0  0  0  0
  2 29  1  0  0  0  0
  3 21  2  0  0  0  0
  4  6  1  0  0  0  0
  4 59  1  0  0  0  0
  4 60  1  0  0  0  0
  4 61  1  0  0  0  0
  5 62  1  0  0  0  0
  6 14  1  0  0  0  0
  7 10  1  0  0  0  0
  7 63  1  0  0  0  0
  7 64  1  0  0  0  0
  8 27  1  0  0  0  0
  8 48  1  0  0  0  0
  8 65  1  0  0  0  0
  9 21  1  0  0  0  0
  9 23  1  0  0  0  0
 10 13  1  0  0  0  0
 10 66  1  0  0  0  0
 10 67  1  0  0  0  0
 11 19  1  0  0  0  0
 11 28  1  0  0  0  0
 11 68  1  0  0  0  0
 12 27  2  0  0  0  0
 13 16  2  0  0  0  0
 13 69  1  0  0  0  0
 14 44  1  0  0  0  0
 14 49  1  0  0  0  0
 15 28  2  0  0  0  0
 16 19  1  0  0  0  0
 16 70  1  0  0  0  0
 17 51  2  0  0  0  0
 17 52  1  0  0  0  0
 19 21  1  0  0  0  0
 19 71  1  1  0  0  0
 20 49  2  0  0  0  0
 22 50  1  0  0  0  0
 22 51  1  0  0  0  0
 23 25  1  0  0  0  0
 23 26  1  0  0  0  0
 23 72  1  6  0  0  0
 24 53  1  0  0  0  0
 24 73  1  0  0  0  0
 25 27  1  0  0  0  0
 25 74  1  0  0  0  0
 25 75  1  0  0  0  0
 26 76  1  0  0  0  0
 26 77  1  0  0  0  0
 26 78  1  0  0  0  0
 28 52  1  0  0  0  0
 29 30  1  0  0  0  0
 29 79  1  0  0  0  0
 29 80  1  0  0  0  0
 30 31  1  0  0  0  0
 30 81  1  0  0  0  0
 30 82  1  0  0  0  0
 31 32  1  0  0  0  0
 31 83  1  0  0  0  0
 31 84  1  0  0  0  0
 32 33  1  0  0  0  0
 32 85  1  0  0  0  0
 32 86  1  0  0  0  0
 33 34  1  0  0  0  0
 33 87  1  0  0  0  0
 33 88  1  0  0  0  0
 34 35  1  0  0  0  0
 34 89  1  0  0  0  0
 34 90  1  0  0  0  0
 35 36  1  0  0  0  0
 35 91  1  0  0  0  0
 35 92  1  0  0  0  0
 36 37  1  0  0  0  0
 36 93  1  0  0  0  0
 36 94  1  0  0  0  0
 37 38  1  0  0  0  0
 37 95  1  0  0  0  0
 37 96  1  0  0  0  0
 38 39  1  0  0  0  0
 38 97  1  0  0  0  0
 38 98  1  0  0  0  0
 39 40  1  0  0  0  0
 39 99  1  0  0  0  0
 39100  1  0  0  0  0
 40 41  1  0  0  0  0
 40101  1  0  0  0  0
 40102  1  0  0  0  0
 41 42  1  0  0  0  0
 41103  1  0  0  0  0
 41104  1  0  0  0  0
 42 43  1  0  0  0  0
 42105  1  0  0  0  0
 42106  1  0  0  0  0
 43107  1  0  0  0  0
 43108  1  0  0  0  0
 43109  1  0  0  0  0
 44 45  1  0  0  0  0
 44110  1  0  0  0  0
 44111  1  0  0  0  0
 45 46  1  0  0  0  0
 45112  1  0  0  0  0
 45113  1  0  0  0  0
 46 47  1  0  0  0  0
 46114  1  0  0  0  0
 46115  1  0  0  0  0
 47 48  1  0  0  0  0
 47116  1  0  0  0  0
 47117  1  0  0  0  0
 48 49  1  0  0  0  0
 48118  1  1  0  0  0
 50 52  1  0  0  0  0
 50119  1  0  0  0  0
 50120  1  0  0  0  0
 51 58  1  0  0  0  0
 52121  1  1  0  0  0
 53 54  2  0  0  0  0
 53 58  1  0  0  0  0
 54 55  1  0  0  0  0
 54122  1  0  0  0  0
 55 56  2  0  0  0  0
 55123  1  0  0  0  0
 56 57  1  0  0  0  0
 56124  1  0  0  0  0
 57 58  2  0  0  0  0
 57125  1  0  0  0  0
M  END
$$$$