/media/chris/experiments/cd1a-new-docking/inputs/ligands/1xz0_ligand.pdb
 OpenBabel07022319323D

125127  0  0  1  0  0  0  0  0999 V2000
  -40.1047   57.2451   59.0990 N   0  0  0  0  0  0  0  0  0  0  0  0
  -39.6492   56.5633   58.0149 C   0  0  0  0  0  0  0  0  0  0  0  0
  -34.8323   58.2135   62.5576 O   0  0  0  0  0  0  0  0  0  0  0  0
  -35.9625   56.7093   60.5057 Si  0  0  0  0  0  0  0  0  0  0  0  0
  -41.4948   57.3437   59.2522 O   0  0  0  0  0  0  0  0  0  0  0  0
  -34.2145   57.0556   60.3631 O   0  0  0  0  0  0  0  0  0  0  0  0
  -39.3411   57.9092   60.1600 C   0  0  0  0  0  0  0  0  0  0  0  0
  -31.1400   55.0962   62.9245 N   0  0  0  0  0  0  0  0  0  0  0  0
  -34.4223   58.1136   64.8296 O   0  0  0  0  0  0  0  0  0  0  0  0
  -39.7171   57.2580   61.5068 C   0  0  0  0  0  0  0  0  0  0  0  0
  -36.8950   59.8150   64.6310 N   0  0  0  0  0  0  0  0  0  0  0  0
  -32.1234   54.7317   64.9284 O   0  0  0  0  0  0  0  0  0  0  0  0
  -39.0441   57.8107   62.7746 C   0  0  0  0  0  0  0  0  0  0  0  0
  -33.2973   56.2367   60.9497 N   0  0  0  0  0  0  0  0  0  0  0  0
  -37.2193   62.0537   64.8677 O   0  0  0  0  0  0  0  0  0  0  0  0
  -37.6390   58.4030   62.6110 C   0  0  0  0  0  0  0  0  0  0  0  0
  -37.7826   62.6004   62.3292 N   0  0  0  0  0  0  0  0  0  0  0  0
  -40.4279   56.0573   57.2072 O   0  0  0  0  0  0  0  0  0  0  0  0
  -36.7890   58.5530   63.8960 C   0  0  1  0  0  0  0  0  0  0  0  0
  -31.9908   58.0099   61.4124 O   0  0  0  0  0  0  0  0  0  0  0  0
  -35.3080   58.3090   63.6770 C   0  0  0  0  0  0  0  0  0  0  0  0
  -39.5836   61.5346   61.5466 O   0  0  0  0  0  0  0  0  0  0  0  0
  -33.7076   56.8787   65.0244 C   0  0  1  0  0  0  0  0  0  0  0  0
  -40.5436   63.0866   59.3716 O   0  0  0  0  0  0  0  0  0  0  0  0
  -32.7886   56.6633   63.8314 C   0  0  0  0  0  0  0  0  0  0  0  0
  -32.9356   56.7947   66.3354 C   0  0  0  0  0  0  0  0  0  0  0  0
  -31.9953   55.3827   63.9168 C   0  0  0  0  0  0  0  0  0  0  0  0
  -37.1633   61.0492   64.1705 C   0  0  0  0  0  0  0  0  0  0  0  0
  -38.1373   56.4234   57.8081 C   0  0  0  0  0  0  0  0  0  0  0  0
  -37.4061   55.6899   58.9407 C   0  0  0  0  0  0  0  0  0  0  0  0
  -37.9512   54.2555   59.0801 C   0  0  0  0  0  0  0  0  0  0  0  0
  -37.2818   53.4502   60.2100 C   0  0  0  0  0  0  0  0  0  0  0  0
  -37.7964   52.0064   60.3602 C   0  0  0  0  0  0  0  0  0  0  0  0
  -37.5677   51.1530   59.0950 C   0  0  0  0  0  0  0  0  0  0  0  0
  -38.0864   49.6998   59.1988 C   0  0  0  0  0  0  0  0  0  0  0  0
  -37.8313   48.8695   57.9356 C   0  0  0  0  0  0  0  0  0  0  0  0
  -36.3588   48.7002   57.5486 C   0  0  0  0  0  0  0  0  0  0  0  0
  -36.2089   47.8687   56.2614 C   0  0  0  0  0  0  0  0  0  0  0  0
  -34.7515   47.6482   55.8289 C   0  0  0  0  0  0  0  0  0  0  0  0
  -33.9402   48.9179   55.5510 C   0  0  0  0  0  0  0  0  0  0  0  0
  -34.5286   49.8173   54.4355 C   0  0  0  0  0  0  0  0  0  0  0  0
  -33.6551   51.0655   54.1965 C   0  0  0  0  0  0  0  0  0  0  0  0
  -34.1289   52.0569   53.1269 C   0  0  0  0  0  0  0  0  0  0  0  0
  -33.6606   54.8190   61.0917 C   0  0  0  0  0  0  0  0  0  0  0  0
  -32.7928   53.9392   60.1721 C   0  0  0  0  0  0  0  0  0  0  0  0
  -31.6532   54.6601   59.4711 C   0  0  0  0  0  0  0  0  0  0  0  0
  -30.5640   55.1376   60.4351 C   0  0  0  0  0  0  0  0  0  0  0  0
  -30.9783   55.8977   61.7061 C   0  0  1  0  0  0  0  0  0  0  0  0
  -32.1467   56.7978   61.3547 C   0  0  0  0  0  0  0  0  0  0  0  0
  -38.8097   60.5014   62.1550 C   0  0  0  0  0  0  0  0  0  0  0  0
  -38.8766   62.7785   61.7217 C   0  0  0  0  0  0  0  0  0  0  0  0
  -37.5309   61.1951   62.7009 C   0  0  1  0  0  0  0  0  0  0  0  0
  -40.1854   64.1796   60.0562 C   0  0  0  0  0  0  0  0  0  0  0  0
  -40.6337   65.4385   59.6353 C   0  0  0  0  0  0  0  0  0  0  0  0
  -40.2639   66.6018   60.3312 C   0  0  0  0  0  0  0  0  0  0  0  0
  -39.4497   66.5185   61.4620 C   0  0  0  0  0  0  0  0  0  0  0  0
  -39.0050   65.2643   61.8897 C   0  0  0  0  0  0  0  0  0  0  0  0
  -39.3668   64.0976   61.1892 C   0  0  0  0  0  0  0  0  0  0  0  0
  -36.7004   57.7044   59.8116 H   0  0  0  0  0  0  0  0  0  0  0  0
  -36.3355   56.7130   61.8759 H   0  0  0  0  0  0  0  0  0  0  0  0
  -36.2402   55.4355   59.9430 H   0  0  0  0  0  0  0  0  0  0  0  0
  -41.9342   56.8848   58.5192 H   0  0  0  0  0  0  0  0  0  0  0  0
  -39.5828   58.9513   60.1819 H   0  0  0  0  0  0  0  0  0  0  0  0
  -38.2916   57.8044   59.9799 H   0  0  0  0  0  0  0  0  0  0  0  0
  -30.5811   54.2914   63.0203 H   0  0  0  0  0  0  0  0  0  0  0  0
  -39.4709   56.2188   61.4403 H   0  0  0  0  0  0  0  0  0  0  0  0
  -40.7573   57.4744   61.6336 H   0  0  0  0  0  0  0  0  0  0  0  0
  -36.7487   59.7503   65.6024 H   0  0  0  0  0  0  0  0  0  0  0  0
  -39.5159   57.7843   63.6921 H   0  0  0  0  0  0  0  0  0  0  0  0
  -37.2771   58.6882   61.6876 H   0  0  0  0  0  0  0  0  0  0  0  0
  -37.2383   57.7881   64.4943 H   0  0  0  0  0  0  0  0  0  0  0  0
  -34.4347   56.0968   65.0944 H   0  0  0  0  0  0  0  0  0  0  0  0
  -41.0923   63.1658   58.6162 H   0  0  0  0  0  0  0  0  0  0  0  0
  -32.1045   57.4842   63.7764 H   0  0  0  0  0  0  0  0  0  0  0  0
  -33.4072   56.5971   62.9609 H   0  0  0  0  0  0  0  0  0  0  0  0
  -32.1781   57.5502   66.3522 H   0  0  0  0  0  0  0  0  0  0  0  0
  -32.4796   55.8304   66.4196 H   0  0  0  0  0  0  0  0  0  0  0  0
  -33.6070   56.9446   67.1549 H   0  0  0  0  0  0  0  0  0  0  0  0
  -37.7196   57.4046   57.7207 H   0  0  0  0  0  0  0  0  0  0  0  0
  -38.0039   55.8322   56.9263 H   0  0  0  0  0  0  0  0  0  0  0  0
  -37.5574   56.2170   59.8595 H   0  0  0  0  0  0  0  0  0  0  0  0
  -36.3613   55.6474   58.7137 H   0  0  0  0  0  0  0  0  0  0  0  0
  -37.7899   53.7407   58.1560 H   0  0  0  0  0  0  0  0  0  0  0  0
  -38.9899   54.3361   59.3241 H   0  0  0  0  0  0  0  0  0  0  0  0
  -37.4540   53.9636   61.1328 H   0  0  0  0  0  0  0  0  0  0  0  0
  -36.2447   53.3777   59.9571 H   0  0  0  0  0  0  0  0  0  0  0  0
  -38.8460   52.0376   60.5659 H   0  0  0  0  0  0  0  0  0  0  0  0
  -37.2478   51.5513   61.1582 H   0  0  0  0  0  0  0  0  0  0  0  0
  -36.5161   51.1194   58.9003 H   0  0  0  0  0  0  0  0  0  0  0  0
  -38.1243   51.6192   58.3090 H   0  0  0  0  0  0  0  0  0  0  0  0
  -39.1408   49.7282   59.3786 H   0  0  0  0  0  0  0  0  0  0  0  0
  -37.5517   49.2304   59.9980 H   0  0  0  0  0  0  0  0  0  0  0  0
  -38.3346   49.3455   57.1201 H   0  0  0  0  0  0  0  0  0  0  0  0
  -38.1955   47.8864   58.1496 H   0  0  0  0  0  0  0  0  0  0  0  0
  -35.8441   48.2047   58.3451 H   0  0  0  0  0  0  0  0  0  0  0  0
  -35.9426   49.6703   57.3735 H   0  0  0  0  0  0  0  0  0  0  0  0
  -36.7218   48.3760   55.4711 H   0  0  0  0  0  0  0  0  0  0  0  0
  -36.6218   46.9030   56.4658 H   0  0  0  0  0  0  0  0  0  0  0  0
  -34.7596   47.0612   54.9343 H   0  0  0  0  0  0  0  0  0  0  0  0
  -34.2709   47.1711   56.6573 H   0  0  0  0  0  0  0  0  0  0  0  0
  -32.9518   48.6277   55.2614 H   0  0  0  0  0  0  0  0  0  0  0  0
  -33.9560   49.4955   56.4516 H   0  0  0  0  0  0  0  0  0  0  0  0
  -35.5107   50.1301   54.7229 H   0  0  0  0  0  0  0  0  0  0  0  0
  -34.5596   49.2505   53.5285 H   0  0  0  0  0  0  0  0  0  0  0  0
  -32.6805   50.7271   53.9127 H   0  0  0  0  0  0  0  0  0  0  0  0
  -33.6954   51.6111   55.1160 H   0  0  0  0  0  0  0  0  0  0  0  0
  -34.1165   51.5808   52.1687 H   0  0  0  0  0  0  0  0  0  0  0  0
  -33.4764   52.9048   53.1123 H   0  0  0  0  0  0  0  0  0  0  0  0
  -35.1245   52.3769   53.3533 H   0  0  0  0  0  0  0  0  0  0  0  0
  -34.6902   54.6924   60.8294 H   0  0  0  0  0  0  0  0  0  0  0  0
  -33.4965   54.5221   62.1065 H   0  0  0  0  0  0  0  0  0  0  0  0
  -33.4285   53.5174   59.4219 H   0  0  0  0  0  0  0  0  0  0  0  0
  -32.3355   53.2088   60.8064 H   0  0  0  0  0  0  0  0  0  0  0  0
  -32.0518   55.5107   58.9588 H   0  0  0  0  0  0  0  0  0  0  0  0
  -31.2007   53.9634   58.7968 H   0  0  0  0  0  0  0  0  0  0  0  0
  -29.9147   55.7827   59.8809 H   0  0  0  0  0  0  0  0  0  0  0  0
  -30.1323   54.2314   60.8058 H   0  0  0  0  0  0  0  0  0  0  0  0
  -30.1511   56.5024   62.0143 H   0  0  0  0  0  0  0  0  0  0  0  0
  -38.5497   59.7562   61.4325 H   0  0  0  0  0  0  0  0  0  0  0  0
  -39.3535   60.0092   62.9341 H   0  0  0  0  0  0  0  0  0  0  0  0
  -36.6658   60.7231   62.2840 H   0  0  0  0  0  0  0  0  0  0  0  0
  -41.2422   65.5122   58.8050 H   0  0  0  0  0  0  0  0  0  0  0  0
  -40.5961   67.5227   60.0046 H   0  0  0  0  0  0  0  0  0  0  0  0
  -39.1796   67.3719   61.9756 H   0  0  0  0  0  0  0  0  0  0  0  0
  -38.4059   65.1927   62.7268 H   0  0  0  0  0  0  0  0  0  0  0  0
  1  2  1  0  0  0  0
  1  5  1  0  0  0  0
  1  7  1  0  0  0  0
  2 18  2  0  0  0  0
  2 29  1  0  0  0  0
  3 21  2  0  0  0  0
  4  6  1  0  0  0  0
  4 59  1  0  0  0  0
  4 60  1  0  0  0  0
  4 61  1  0  0  0  0
  5 62  1  0  0  0  0
  6 14  1  0  0  0  0
  7 10  1  0  0  0  0
  7 63  1  0  0  0  0
  7 64  1  0  0  0  0
  8 27  1  0  0  0  0
  8 48  1  0  0  0  0
  8 65  1  0  0  0  0
  9 21  1  0  0  0  0
  9 23  1  0  0  0  0
 10 13  1  0  0  0  0
 10 66  1  0  0  0  0
 10 67  1  0  0  0  0
 11 19  1  0  0  0  0
 11 28  1  0  0  0  0
 11 68  1  0  0  0  0
 12 27  2  0  0  0  0
 13 16  2  0  0  0  0
 13 69  1  0  0  0  0
 14 44  1  0  0  0  0
 14 49  1  0  0  0  0
 15 28  2  0  0  0  0
 16 19  1  0  0  0  0
 16 70  1  0  0  0  0
 17 51  2  0  0  0  0
 17 52  1  0  0  0  0
 19 21  1  0  0  0  0
 19 71  1  1  0  0  0
 20 49  2  0  0  0  0
 22 50  1  0  0  0  0
 22 51  1  0  0  0  0
 23 25  1  0  0  0  0
 23 26  1  0  0  0  0
 23 72  1  6  0  0  0
 24 53  1  0  0  0  0
 24 73  1  0  0  0  0
 25 27  1  0  0  0  0
 25 74  1  0  0  0  0
 25 75  1  0  0  0  0
 26 76  1  0  0  0  0
 26 77  1  0  0  0  0
 26 78  1  0  0  0  0
 28 52  1  0  0  0  0
 29 30  1  0  0  0  0
 29 79  1  0  0  0  0
 29 80  1  0  0  0  0
 30 31  1  0  0  0  0
 30 81  1  0  0  0  0
 30 82  1  0  0  0  0
 31 32  1  0  0  0  0
 31 83  1  0  0  0  0
 31 84  1  0  0  0  0
 32 33  1  0  0  0  0
 32 85  1  0  0  0  0
 32 86  1  0  0  0  0
 33 34  1  0  0  0  0
 33 87  1  0  0  0  0
 33 88  1  0  0  0  0
 34 35  1  0  0  0  0
 34 89  1  0  0  0  0
 34 90  1  0  0  0  0
 35 36  1  0  0  0  0
 35 91  1  0  0  0  0
 35 92  1  0  0  0  0
 36 37  1  0  0  0  0
 36 93  1  0  0  0  0
 36 94  1  0  0  0  0
 37 38  1  0  0  0  0
 37 95  1  0  0  0  0
 37 96  1  0  0  0  0
 38 39  1  0  0  0  0
 38 97  1  0  0  0  0
 38 98  1  0  0  0  0
 39 40  1  0  0  0  0
 39 99  1  0  0  0  0
 39100  1  0  0  0  0
 40 41  1  0  0  0  0
 40101  1  0  0  0  0
 40102  1  0  0  0  0
 41 42  1  0  0  0  0
 41103  1  0  0  0  0
 41104  1  0  0  0  0
 42 43  1  0  0  0  0
 42105  1  0  0  0  0
 42106  1  0  0  0  0
 43107  1  0  0  0  0
 43108  1  0  0  0  0
 43109  1  0  0  0  0
 44 45  1  0  0  0  0
 44110  1  0  0  0  0
 44111  1  0  0  0  0
 45 46  1  0  0  0  0
 45112  1  0  0  0  0
 45113  1  0  0  0  0
 46 47  1  0  0  0  0
 46114  1  0  0  0  0
 46115  1  0  0  0  0
 47 48  1  0  0  0  0
 47116  1  0  0  0  0
 47117  1  0  0  0  0
 48 49  1  0  0  0  0
 48118  1  1  0  0  0
 50 52  1  0  0  0  0
 50119  1  0  0  0  0
 50120  1  0  0  0  0
 51 58  1  0  0  0  0
 52121  1  6  0  0  0
 53 54  2  0  0  0  0
 53 58  1  0  0  0  0
 54 55  1  0  0  0  0
 54122  1  0  0  0  0
 55 56  2  0  0  0  0
 55123  1  0  0  0  0
 56 57  1  0  0  0  0
 56124  1  0  0  0  0
 57 58  2  0  0  0  0
 57125  1  0  0  0  0
M  END
$$$$