/media/chris/experiments/cd1a-new-docking/inputs/ligands/1xz0_ligand.pdb
 OpenBabel07022319323D

125127  0  0  1  0  0  0  0  0999 V2000
  -41.2006   59.9899   59.4601 N   0  0  0  0  0  0  0  0  0  0  0  0
  -42.4660   60.4764   59.3610 C   0  0  0  0  0  0  0  0  0  0  0  0
  -34.9015   57.3291   63.0745 O   0  0  0  0  0  0  0  0  0  0  0  0
  -32.5401   67.8530   62.8282 Si  0  0  0  0  0  0  0  0  0  0  0  0
  -40.8803   58.8799   58.6658 O   0  0  0  0  0  0  0  0  0  0  0  0
  -32.5592   66.2811   61.9770 O   0  0  0  0  0  0  0  0  0  0  0  0
  -40.0916   60.4644   60.2936 C   0  0  0  0  0  0  0  0  0  0  0  0
  -31.5320   62.4298   63.9681 N   0  0  0  0  0  0  0  0  0  0  0  0
  -34.3234   59.2293   64.2555 O   0  0  0  0  0  0  0  0  0  0  0  0
  -39.6678   59.3173   61.2339 C   0  0  0  0  0  0  0  0  0  0  0  0
  -36.8950   59.8150   64.6310 N   0  0  0  0  0  0  0  0  0  0  0  0
  -33.5053   61.6283   64.7291 O   0  0  0  0  0  0  0  0  0  0  0  0
  -38.5208   59.5953   62.2201 C   0  0  0  0  0  0  0  0  0  0  0  0
  -31.9666   65.1871   62.5318 N   0  0  0  0  0  0  0  0  0  0  0  0
  -35.4578   59.5184   66.3686 O   0  0  0  0  0  0  0  0  0  0  0  0
  -37.6390   58.4030   62.6110 C   0  0  0  0  0  0  0  0  0  0  0  0
  -38.0692   61.8794   66.0900 N   0  0  0  0  0  0  0  0  0  0  0  0
  -42.8248   61.4560   60.0140 O   0  0  0  0  0  0  0  0  0  0  0  0
  -36.7890   58.5530   63.8960 C   0  0  1  0  0  0  0  0  0  0  0  0
  -33.4800   65.1961   64.1976 O   0  0  0  0  0  0  0  0  0  0  0  0
  -35.3080   58.3090   63.6770 C   0  0  0  0  0  0  0  0  0  0  0  0
  -36.9691   63.7250   65.4772 O   0  0  0  0  0  0  0  0  0  0  0  0
  -32.9090   58.9936   64.1228 C   0  0  1  0  0  0  0  0  0  0  0  0
  -38.6471   65.0045   63.5251 O   0  0  0  0  0  0  0  0  0  0  0  0
  -32.2928   60.1754   63.3893 C   0  0  0  0  0  0  0  0  0  0  0  0
  -32.1864   58.7248   65.4370 C   0  0  0  0  0  0  0  0  0  0  0  0
  -32.4716   61.4846   64.1175 C   0  0  0  0  0  0  0  0  0  0  0  0
  -36.2648   60.2028   65.7534 C   0  0  0  0  0  0  0  0  0  0  0  0
  -43.4565   59.7811   58.4210 C   0  0  0  0  0  0  0  0  0  0  0  0
  -44.2767   58.6620   59.0769 C   0  0  0  0  0  0  0  0  0  0  0  0
  -43.3374   57.5739   59.6318 C   0  0  0  0  0  0  0  0  0  0  0  0
  -44.0812   56.3990   60.2949 C   0  0  0  0  0  0  0  0  0  0  0  0
  -45.0296   55.6291   59.3569 C   0  0  0  0  0  0  0  0  0  0  0  0
  -44.2991   54.9908   58.1568 C   0  0  0  0  0  0  0  0  0  0  0  0
  -43.2153   53.9568   58.5413 C   0  0  0  0  0  0  0  0  0  0  0  0
  -42.4938   53.3511   57.3319 C   0  0  0  0  0  0  0  0  0  0  0  0
  -41.4218   52.3079   57.6629 C   0  0  0  0  0  0  0  0  0  0  0  0
  -40.3187   52.9015   58.5581 C   0  0  0  0  0  0  0  0  0  0  0  0
  -39.5890   54.1009   57.9345 C   0  0  0  0  0  0  0  0  0  0  0  0
  -38.4706   54.7143   58.7833 C   0  0  0  0  0  0  0  0  0  0  0  0
  -37.3137   53.7382   59.1124 C   0  0  0  0  0  0  0  0  0  0  0  0
  -36.2340   54.4143   59.9816 C   0  0  0  0  0  0  0  0  0  0  0  0
  -35.5460   55.6564   59.4026 C   0  0  0  0  0  0  0  0  0  0  0  0
  -30.8769   64.5585   61.7706 C   0  0  0  0  0  0  0  0  0  0  0  0
  -29.5269   64.7590   62.4848 C   0  0  0  0  0  0  0  0  0  0  0  0
  -29.6116   65.3764   63.8710 C   0  0  0  0  0  0  0  0  0  0  0  0
  -30.2846   64.4585   64.8949 C   0  0  0  0  0  0  0  0  0  0  0  0
  -31.6166   63.7845   64.5256 C   0  0  1  0  0  0  0  0  0  0  0  0
  -32.4357   64.7739   63.7201 C   0  0  0  0  0  0  0  0  0  0  0  0
  -35.9383   62.8376   65.9092 C   0  0  0  0  0  0  0  0  0  0  0  0
  -38.2295   63.0388   65.6128 C   0  0  0  0  0  0  0  0  0  0  0  0
  -36.6602   61.5392   66.3649 C   0  0  1  0  0  0  0  0  0  0  0  0
  -39.6982   64.5962   64.2463 C   0  0  0  0  0  0  0  0  0  0  0  0
  -40.9712   65.1112   63.9684 C   0  0  0  0  0  0  0  0  0  0  0  0
  -42.0888   64.7058   64.7172 C   0  0  0  0  0  0  0  0  0  0  0  0
  -41.9479   63.7730   65.7461 C   0  0  0  0  0  0  0  0  0  0  0  0
  -40.6811   63.2514   66.0232 C   0  0  0  0  0  0  0  0  0  0  0  0
  -39.5578   63.6624   65.2802 C   0  0  0  0  0  0  0  0  0  0  0  0
  -33.2194   68.8236   62.0453 H   0  0  0  0  0  0  0  0  0  0  0  0
  -31.1965   68.2649   63.0315 H   0  0  0  0  0  0  0  0  0  0  0  0
  -33.1893   67.7192   64.0840 H   0  0  0  0  0  0  0  0  0  0  0  0
  -41.6558   58.6214   58.1437 H   0  0  0  0  0  0  0  0  0  0  0  0
  -40.4081   61.3077   60.8713 H   0  0  0  0  0  0  0  0  0  0  0  0
  -39.2678   60.7603   59.6781 H   0  0  0  0  0  0  0  0  0  0  0  0
  -30.7290   62.1984   63.4477 H   0  0  0  0  0  0  0  0  0  0  0  0
  -39.3702   58.4930   60.6200 H   0  0  0  0  0  0  0  0  0  0  0  0
  -40.5230   59.1416   61.8525 H   0  0  0  0  0  0  0  0  0  0  0  0
  -37.5175   60.4746   64.2480 H   0  0  0  0  0  0  0  0  0  0  0  0
  -38.3525   60.5396   62.6009 H   0  0  0  0  0  0  0  0  0  0  0  0
  -37.6135   57.5411   62.0440 H   0  0  0  0  0  0  0  0  0  0  0  0
  -37.2383   57.7881   64.4943 H   0  0  0  0  0  0  0  0  0  0  0  0
  -32.7872   58.0895   63.5636 H   0  0  0  0  0  0  0  0  0  0  0  0
  -38.7652   65.6304   62.8379 H   0  0  0  0  0  0  0  0  0  0  0  0
  -32.7530   60.2559   62.4267 H   0  0  0  0  0  0  0  0  0  0  0  0
  -31.2410   59.9921   63.3175 H   0  0  0  0  0  0  0  0  0  0  0  0
  -32.2581   59.5872   66.0663 H   0  0  0  0  0  0  0  0  0  0  0  0
  -31.1565   58.5112   65.2406 H   0  0  0  0  0  0  0  0  0  0  0  0
  -32.6372   57.8872   65.9271 H   0  0  0  0  0  0  0  0  0  0  0  0
  -42.9049   59.3585   57.6074 H   0  0  0  0  0  0  0  0  0  0  0  0
  -44.1557   60.5283   58.1086 H   0  0  0  0  0  0  0  0  0  0  0  0
  -44.9298   58.2283   58.3487 H   0  0  0  0  0  0  0  0  0  0  0  0
  -44.8506   59.0731   59.8811 H   0  0  0  0  0  0  0  0  0  0  0  0
  -42.6938   58.0214   60.3600 H   0  0  0  0  0  0  0  0  0  0  0  0
  -42.7945   57.1737   58.8011 H   0  0  0  0  0  0  0  0  0  0  0  0
  -44.6583   56.7861   61.1085 H   0  0  0  0  0  0  0  0  0  0  0  0
  -43.3312   55.7024   60.6062 H   0  0  0  0  0  0  0  0  0  0  0  0
  -45.7680   56.3084   58.9852 H   0  0  0  0  0  0  0  0  0  0  0  0
  -45.4686   54.8356   59.9248 H   0  0  0  0  0  0  0  0  0  0  0  0
  -43.8310   55.7728   57.5962 H   0  0  0  0  0  0  0  0  0  0  0  0
  -45.0405   54.4602   57.5967 H   0  0  0  0  0  0  0  0  0  0  0  0
  -43.6815   53.1650   59.0895 H   0  0  0  0  0  0  0  0  0  0  0  0
  -42.4792   54.4726   59.1219 H   0  0  0  0  0  0  0  0  0  0  0  0
  -42.0243   54.1481   56.7940 H   0  0  0  0  0  0  0  0  0  0  0  0
  -43.2433   52.8360   56.7682 H   0  0  0  0  0  0  0  0  0  0  0  0
  -40.9814   51.9600   56.7519 H   0  0  0  0  0  0  0  0  0  0  0  0
  -41.8873   51.5022   58.1911 H   0  0  0  0  0  0  0  0  0  0  0  0
  -39.5986   52.1357   58.7578 H   0  0  0  0  0  0  0  0  0  0  0  0
  -40.7976   53.2570   59.4465 H   0  0  0  0  0  0  0  0  0  0  0  0
  -40.3143   54.8645   57.7453 H   0  0  0  0  0  0  0  0  0  0  0  0
  -39.1129   53.7257   57.0528 H   0  0  0  0  0  0  0  0  0  0  0  0
  -38.8962   55.0528   59.7048 H   0  0  0  0  0  0  0  0  0  0  0  0
  -38.0470   55.5088   58.2051 H   0  0  0  0  0  0  0  0  0  0  0  0
  -36.8671   53.4075   58.1980 H   0  0  0  0  0  0  0  0  0  0  0  0
  -37.7169   52.9121   59.6600 H   0  0  0  0  0  0  0  0  0  0  0  0
  -35.4742   53.6862   60.1756 H   0  0  0  0  0  0  0  0  0  0  0  0
  -36.7561   54.7658   60.8469 H   0  0  0  0  0  0  0  0  0  0  0  0
  -34.9974   55.3838   58.5253 H   0  0  0  0  0  0  0  0  0  0  0  0
  -34.8758   56.0645   60.1300 H   0  0  0  0  0  0  0  0  0  0  0  0
  -36.2848   56.3874   59.1485 H   0  0  0  0  0  0  0  0  0  0  0  0
  -30.8283   65.0002   60.7973 H   0  0  0  0  0  0  0  0  0  0  0  0
  -31.0724   63.5094   61.6932 H   0  0  0  0  0  0  0  0  0  0  0  0
  -28.9218   65.3970   61.8751 H   0  0  0  0  0  0  0  0  0  0  0  0
  -29.1157   63.7806   62.6209 H   0  0  0  0  0  0  0  0  0  0  0  0
  -30.1737   66.2845   63.8059 H   0  0  0  0  0  0  0  0  0  0  0  0
  -28.6102   65.5493   64.2059 H   0  0  0  0  0  0  0  0  0  0  0  0
  -30.4615   65.0438   65.7729 H   0  0  0  0  0  0  0  0  0  0  0  0
  -29.6015   63.6412   64.9968 H   0  0  0  0  0  0  0  0  0  0  0  0
  -32.1354   63.5577   65.4335 H   0  0  0  0  0  0  0  0  0  0  0  0
  -35.3945   63.2671   66.7244 H   0  0  0  0  0  0  0  0  0  0  0  0
  -35.2337   62.6427   65.1279 H   0  0  0  0  0  0  0  0  0  0  0  0
  -36.3948   61.3228   67.3786 H   0  0  0  0  0  0  0  0  0  0  0  0
  -41.0892   65.7959   63.2053 H   0  0  0  0  0  0  0  0  0  0  0  0
  -43.0189   65.0997   64.5054 H   0  0  0  0  0  0  0  0  0  0  0  0
  -42.7684   63.4723   66.2951 H   0  0  0  0  0  0  0  0  0  0  0  0
  -40.5679   62.5585   66.7795 H   0  0  0  0  0  0  0  0  0  0  0  0
  1  2  1  0  0  0  0
  1  5  1  0  0  0  0
  1  7  1  0  0  0  0
  2 18  2  0  0  0  0
  2 29  1  0  0  0  0
  3 21  2  0  0  0  0
  4  6  1  0  0  0  0
  4 59  1  0  0  0  0
  4 60  1  0  0  0  0
  4 61  1  0  0  0  0
  5 62  1  0  0  0  0
  6 14  1  0  0  0  0
  7 10  1  0  0  0  0
  7 63  1  0  0  0  0
  7 64  1  0  0  0  0
  8 27  1  0  0  0  0
  8 48  1  0  0  0  0
  8 65  1  0  0  0  0
  9 21  1  0  0  0  0
  9 23  1  0  0  0  0
 10 13  1  0  0  0  0
 10 66  1  0  0  0  0
 10 67  1  0  0  0  0
 11 19  1  0  0  0  0
 11 28  1  0  0  0  0
 11 68  1  0  0  0  0
 12 27  2  0  0  0  0
 13 16  2  0  0  0  0
 13 69  1  0  0  0  0
 14 44  1  0  0  0  0
 14 49  1  0  0  0  0
 15 28  2  0  0  0  0
 16 19  1  0  0  0  0
 16 70  1  0  0  0  0
 17 51  2  0  0  0  0
 17 52  1  0  0  0  0
 19 21  1  0  0  0  0
 19 71  1  1  0  0  0
 20 49  2  0  0  0  0
 22 50  1  0  0  0  0
 22 51  1  0  0  0  0
 23 25  1  0  0  0  0
 23 26  1  0  0  0  0
 23 72  1  6  0  0  0
 24 53  1  0  0  0  0
 24 73  1  0  0  0  0
 25 27  1  0  0  0  0
 25 74  1  0  0  0  0
 25 75  1  0  0  0  0
 26 76  1  0  0  0  0
 26 77  1  0  0  0  0
 26 78  1  0  0  0  0
 28 52  1  0  0  0  0
 29 30  1  0  0  0  0
 29 79  1  0  0  0  0
 29 80  1  0  0  0  0
 30 31  1  0  0  0  0
 30 81  1  0  0  0  0
 30 82  1  0  0  0  0
 31 32  1  0  0  0  0
 31 83  1  0  0  0  0
 31 84  1  0  0  0  0
 32 33  1  0  0  0  0
 32 85  1  0  0  0  0
 32 86  1  0  0  0  0
 33 34  1  0  0  0  0
 33 87  1  0  0  0  0
 33 88  1  0  0  0  0
 34 35  1  0  0  0  0
 34 89  1  0  0  0  0
 34 90  1  0  0  0  0
 35 36  1  0  0  0  0
 35 91  1  0  0  0  0
 35 92  1  0  0  0  0
 36 37  1  0  0  0  0
 36 93  1  0  0  0  0
 36 94  1  0  0  0  0
 37 38  1  0  0  0  0
 37 95  1  0  0  0  0
 37 96  1  0  0  0  0
 38 39  1  0  0  0  0
 38 97  1  0  0  0  0
 38 98  1  0  0  0  0
 39 40  1  0  0  0  0
 39 99  1  0  0  0  0
 39100  1  0  0  0  0
 40 41  1  0  0  0  0
 40101  1  0  0  0  0
 40102  1  0  0  0  0
 41 42  1  0  0  0  0
 41103  1  0  0  0  0
 41104  1  0  0  0  0
 42 43  1  0  0  0  0
 42105  1  0  0  0  0
 42106  1  0  0  0  0
 43107  1  0  0  0  0
 43108  1  0  0  0  0
 43109  1  0  0  0  0
 44 45  1  0  0  0  0
 44110  1  0  0  0  0
 44111  1  0  0  0  0
 45 46  1  0  0  0  0
 45112  1  0  0  0  0
 45113  1  0  0  0  0
 46 47  1  0  0  0  0
 46114  1  0  0  0  0
 46115  1  0  0  0  0
 47 48  1  0  0  0  0
 47116  1  0  0  0  0
 47117  1  0  0  0  0
 48 49  1  0  0  0  0
 48118  1  1  0  0  0
 50 52  1  0  0  0  0
 50119  1  0  0  0  0
 50120  1  0  0  0  0
 51 58  1  0  0  0  0
 52121  1  1  0  0  0
 53 54  2  0  0  0  0
 53 58  1  0  0  0  0
 54 55  1  0  0  0  0
 54122  1  0  0  0  0
 55 56  2  0  0  0  0
 55123  1  0  0  0  0
 56 57  1  0  0  0  0
 56124  1  0  0  0  0
 57 58  2  0  0  0  0
 57125  1  0  0  0  0
M  END
$$$$