/media/chris/experiments/cd1a-new-docking/inputs/ligands/1xz0_ligand.pdb
 OpenBabel07022319323D

125127  0  0  1  0  0  0  0  0999 V2000
  -39.2648   60.1319   59.6831 N   0  0  0  0  0  0  0  0  0  0  0  0
  -39.1856   60.5205   58.3829 C   0  0  0  0  0  0  0  0  0  0  0  0
  -34.9015   57.3291   63.0745 O   0  0  0  0  0  0  0  0  0  0  0  0
  -34.9599   60.1340   73.1620 Si  0  0  0  0  0  0  0  0  0  0  0  0
  -38.0680   60.0990   60.4126 O   0  0  0  0  0  0  0  0  0  0  0  0
  -33.2483   59.9043   72.6997 O   0  0  0  0  0  0  0  0  0  0  0  0
  -40.4442   59.7327   60.4573 C   0  0  0  0  0  0  0  0  0  0  0  0
  -32.4416   59.2298   68.3699 N   0  0  0  0  0  0  0  0  0  0  0  0
  -34.3234   59.2293   64.2555 O   0  0  0  0  0  0  0  0  0  0  0  0
  -39.9996   58.7111   61.5241 C   0  0  0  0  0  0  0  0  0  0  0  0
  -36.8950   59.8150   64.6310 N   0  0  0  0  0  0  0  0  0  0  0  0
  -33.1355   57.1136   67.9755 O   0  0  0  0  0  0  0  0  0  0  0  0
  -38.9635   59.1745   62.5621 C   0  0  0  0  0  0  0  0  0  0  0  0
  -32.8715   59.9633   71.3918 N   0  0  0  0  0  0  0  0  0  0  0  0
  -37.6467   59.1566   66.6741 O   0  0  0  0  0  0  0  0  0  0  0  0
  -37.6390   58.4030   62.6110 C   0  0  0  0  0  0  0  0  0  0  0  0
  -37.7584   62.3899   65.2583 N   0  0  0  0  0  0  0  0  0  0  0  0
  -38.1078   60.8284   57.8746 O   0  0  0  0  0  0  0  0  0  0  0  0
  -36.7890   58.5530   63.8960 C   0  0  1  0  0  0  0  0  0  0  0  0
  -32.3436   57.7758   71.4319 O   0  0  0  0  0  0  0  0  0  0  0  0
  -35.3080   58.3090   63.6770 C   0  0  0  0  0  0  0  0  0  0  0  0
  -35.9961   63.3797   66.2103 O   0  0  0  0  0  0  0  0  0  0  0  0
  -33.3633   58.7826   65.2315 C   0  0  1  0  0  0  0  0  0  0  0  0
  -39.5112   64.2371   64.0001 O   0  0  0  0  0  0  0  0  0  0  0  0
  -34.0476   58.7333   66.5894 C   0  0  0  0  0  0  0  0  0  0  0  0
  -32.6988   57.4517   64.9021 C   0  0  0  0  0  0  0  0  0  0  0  0
  -33.1285   58.2919   67.7015 C   0  0  0  0  0  0  0  0  0  0  0  0
  -37.2920   60.0330   65.8968 C   0  0  0  0  0  0  0  0  0  0  0  0
  -40.4683   60.5783   57.5466 C   0  0  0  0  0  0  0  0  0  0  0  0
  -40.4586   61.6424   56.4407 C   0  0  0  0  0  0  0  0  0  0  0  0
  -40.2538   63.0408   57.0546 C   0  0  0  0  0  0  0  0  0  0  0  0
  -40.2484   64.1752   56.0124 C   0  0  0  0  0  0  0  0  0  0  0  0
  -39.1573   64.0491   54.9328 C   0  0  0  0  0  0  0  0  0  0  0  0
  -39.2885   62.7602   54.0945 C   0  0  0  0  0  0  0  0  0  0  0  0
  -40.6179   62.6347   53.3144 C   0  0  0  0  0  0  0  0  0  0  0  0
  -41.8580   62.6543   54.2154 C   0  0  0  0  0  0  0  0  0  0  0  0
  -43.1991   62.5155   53.4880 C   0  0  0  0  0  0  0  0  0  0  0  0
  -44.3802   62.5640   54.4744 C   0  0  0  0  0  0  0  0  0  0  0  0
  -45.7555   62.4125   53.8070 C   0  0  0  0  0  0  0  0  0  0  0  0
  -46.9626   62.4716   54.7489 C   0  0  0  0  0  0  0  0  0  0  0  0
  -46.9617   61.3849   55.8529 C   0  0  0  0  0  0  0  0  0  0  0  0
  -45.7250   61.5082   56.7660 C   0  0  0  0  0  0  0  0  0  0  0  0
  -45.5575   62.8188   57.5441 C   0  0  0  0  0  0  0  0  0  0  0  0
  -33.1157   61.2274   70.6818 C   0  0  0  0  0  0  0  0  0  0  0  0
  -31.7866   61.9314   70.3494 C   0  0  0  0  0  0  0  0  0  0  0  0
  -30.5334   61.1225   70.6407 C   0  0  0  0  0  0  0  0  0  0  0  0
  -30.3852   59.9000   69.7310 C   0  0  0  0  0  0  0  0  0  0  0  0
  -31.5926   58.9675   69.5377 C   0  0  1  0  0  0  0  0  0  0  0  0
  -32.3191   58.8591   70.8640 C   0  0  0  0  0  0  0  0  0  0  0  0
  -36.1819   62.1930   66.9809 C   0  0  0  0  0  0  0  0  0  0  0  0
  -36.9992   63.3970   65.1753 C   0  0  0  0  0  0  0  0  0  0  0  0
  -37.4151   61.4760   66.3644 C   0  0  1  0  0  0  0  0  0  0  0  0
  -38.3897   64.8806   63.6536 C   0  0  0  0  0  0  0  0  0  0  0  0
  -38.4553   65.9490   62.7498 C   0  0  0  0  0  0  0  0  0  0  0  0
  -37.2913   66.6345   62.3629 C   0  0  0  0  0  0  0  0  0  0  0  0
  -36.0496   66.2656   62.8834 C   0  0  0  0  0  0  0  0  0  0  0  0
  -35.9798   65.2044   63.7903 C   0  0  0  0  0  0  0  0  0  0  0  0
  -37.1434   64.5100   64.1731 C   0  0  0  0  0  0  0  0  0  0  0  0
  -35.0878   60.0263   74.5721 H   0  0  0  0  0  0  0  0  0  0  0  0
  -35.7566   59.1386   72.5370 H   0  0  0  0  0  0  0  0  0  0  0  0
  -35.3946   61.4196   72.7441 H   0  0  0  0  0  0  0  0  0  0  0  0
  -37.3335   60.3733   59.8414 H   0  0  0  0  0  0  0  0  0  0  0  0
  -41.1688   59.2866   59.8087 H   0  0  0  0  0  0  0  0  0  0  0  0
  -40.8843   60.5879   60.9263 H   0  0  0  0  0  0  0  0  0  0  0  0
  -32.5118   60.1599   68.0549 H   0  0  0  0  0  0  0  0  0  0  0  0
  -39.5837   57.8704   61.0092 H   0  0  0  0  0  0  0  0  0  0  0  0
  -40.8832   58.5080   62.0924 H   0  0  0  0  0  0  0  0  0  0  0  0
  -36.6386   60.6199   64.1253 H   0  0  0  0  0  0  0  0  0  0  0  0
  -39.1508   59.9672   63.1958 H   0  0  0  0  0  0  0  0  0  0  0  0
  -37.3289   57.8116   61.8242 H   0  0  0  0  0  0  0  0  0  0  0  0
  -37.2383   57.7881   64.4943 H   0  0  0  0  0  0  0  0  0  0  0  0
  -32.5584   59.4876   65.2332 H   0  0  0  0  0  0  0  0  0  0  0  0
  -40.3342   64.5028   63.6396 H   0  0  0  0  0  0  0  0  0  0  0  0
  -34.8669   58.0474   66.5327 H   0  0  0  0  0  0  0  0  0  0  0  0
  -34.3709   59.7270   66.8192 H   0  0  0  0  0  0  0  0  0  0  0  0
  -33.4392   56.6794   64.8791 H   0  0  0  0  0  0  0  0  0  0  0  0
  -31.9681   57.2231   65.6495 H   0  0  0  0  0  0  0  0  0  0  0  0
  -32.2226   57.5177   63.9462 H   0  0  0  0  0  0  0  0  0  0  0  0
  -41.2867   60.7863   58.2037 H   0  0  0  0  0  0  0  0  0  0  0  0
  -40.5556   59.6309   57.0570 H   0  0  0  0  0  0  0  0  0  0  0  0
  -41.3920   61.6184   55.9181 H   0  0  0  0  0  0  0  0  0  0  0  0
  -39.6569   61.4363   55.7628 H   0  0  0  0  0  0  0  0  0  0  0  0
  -39.3162   63.0502   57.5702 H   0  0  0  0  0  0  0  0  0  0  0  0
  -41.0798   63.2204   57.7106 H   0  0  0  0  0  0  0  0  0  0  0  0
  -40.1022   65.1013   56.5280 H   0  0  0  0  0  0  0  0  0  0  0  0
  -41.1874   64.1225   55.5020 H   0  0  0  0  0  0  0  0  0  0  0  0
  -38.2008   64.0486   55.4124 H   0  0  0  0  0  0  0  0  0  0  0  0
  -39.2677   64.8786   54.2660 H   0  0  0  0  0  0  0  0  0  0  0  0
  -39.2084   61.9224   54.7552 H   0  0  0  0  0  0  0  0  0  0  0  0
  -38.5084   62.7925   53.3629 H   0  0  0  0  0  0  0  0  0  0  0  0
  -40.6071   61.7121   52.7725 H   0  0  0  0  0  0  0  0  0  0  0  0
  -40.6850   63.4839   52.6669 H   0  0  0  0  0  0  0  0  0  0  0  0
  -41.8653   63.5826   54.7474 H   0  0  0  0  0  0  0  0  0  0  0  0
  -41.7759   61.7966   54.8499 H   0  0  0  0  0  0  0  0  0  0  0  0
  -43.2180   61.5806   52.9677 H   0  0  0  0  0  0  0  0  0  0  0  0
  -43.2976   63.3324   52.8039 H   0  0  0  0  0  0  0  0  0  0  0  0
  -44.3549   63.5044   54.9842 H   0  0  0  0  0  0  0  0  0  0  0  0
  -44.2642   61.7332   55.1387 H   0  0  0  0  0  0  0  0  0  0  0  0
  -45.7754   61.4670   53.3064 H   0  0  0  0  0  0  0  0  0  0  0  0
  -45.8556   63.2530   53.1524 H   0  0  0  0  0  0  0  0  0  0  0  0
  -47.8506   62.3543   54.1636 H   0  0  0  0  0  0  0  0  0  0  0  0
  -46.9163   63.4167   55.2483 H   0  0  0  0  0  0  0  0  0  0  0  0
  -46.9579   60.4198   55.3909 H   0  0  0  0  0  0  0  0  0  0  0  0
  -47.8372   61.5161   56.4539 H   0  0  0  0  0  0  0  0  0  0  0  0
  -44.8576   61.3851   56.1518 H   0  0  0  0  0  0  0  0  0  0  0  0
  -45.8595   60.7569   57.5160 H   0  0  0  0  0  0  0  0  0  0  0  0
  -45.4168   63.6264   56.8564 H   0  0  0  0  0  0  0  0  0  0  0  0
  -44.7055   62.7455   58.1872 H   0  0  0  0  0  0  0  0  0  0  0  0
  -46.4333   62.9993   58.1317 H   0  0  0  0  0  0  0  0  0  0  0  0
  -33.7078   61.8689   71.3005 H   0  0  0  0  0  0  0  0  0  0  0  0
  -33.6300   61.0146   69.7679 H   0  0  0  0  0  0  0  0  0  0  0  0
  -31.7382   62.8340   70.9221 H   0  0  0  0  0  0  0  0  0  0  0  0
  -31.7944   62.0950   69.2920 H   0  0  0  0  0  0  0  0  0  0  0  0
  -30.5714   60.7889   71.6566 H   0  0  0  0  0  0  0  0  0  0  0  0
  -29.6925   61.7592   70.4604 H   0  0  0  0  0  0  0  0  0  0  0  0
  -29.5901   59.3057   70.1306 H   0  0  0  0  0  0  0  0  0  0  0  0
  -30.2249   60.3192   68.7597 H   0  0  0  0  0  0  0  0  0  0  0  0
  -31.2238   58.0020   69.2606 H   0  0  0  0  0  0  0  0  0  0  0  0
  -36.3679   62.4394   68.0054 H   0  0  0  0  0  0  0  0  0  0  0  0
  -35.3126   61.5695   66.9592 H   0  0  0  0  0  0  0  0  0  0  0  0
  -38.1531   61.3234   67.1239 H   0  0  0  0  0  0  0  0  0  0  0  0
  -39.3684   66.2358   62.3638 H   0  0  0  0  0  0  0  0  0  0  0  0
  -37.3547   67.4147   61.6905 H   0  0  0  0  0  0  0  0  0  0  0  0
  -35.1943   66.7699   62.6021 H   0  0  0  0  0  0  0  0  0  0  0  0
  -35.0667   64.9271   64.1831 H   0  0  0  0  0  0  0  0  0  0  0  0
  1  2  1  0  0  0  0
  1  5  1  0  0  0  0
  1  7  1  0  0  0  0
  2 18  2  0  0  0  0
  2 29  1  0  0  0  0
  3 21  2  0  0  0  0
  4  6  1  0  0  0  0
  4 59  1  0  0  0  0
  4 60  1  0  0  0  0
  4 61  1  0  0  0  0
  5 62  1  0  0  0  0
  6 14  1  0  0  0  0
  7 10  1  0  0  0  0
  7 63  1  0  0  0  0
  7 64  1  0  0  0  0
  8 27  1  0  0  0  0
  8 48  1  0  0  0  0
  8 65  1  0  0  0  0
  9 21  1  0  0  0  0
  9 23  1  0  0  0  0
 10 13  1  0  0  0  0
 10 66  1  0  0  0  0
 10 67  1  0  0  0  0
 11 19  1  0  0  0  0
 11 28  1  0  0  0  0
 11 68  1  0  0  0  0
 12 27  2  0  0  0  0
 13 16  2  0  0  0  0
 13 69  1  0  0  0  0
 14 44  1  0  0  0  0
 14 49  1  0  0  0  0
 15 28  2  0  0  0  0
 16 19  1  0  0  0  0
 16 70  1  0  0  0  0
 17 51  2  0  0  0  0
 17 52  1  0  0  0  0
 19 21  1  0  0  0  0
 19 71  1  1  0  0  0
 20 49  2  0  0  0  0
 22 50  1  0  0  0  0
 22 51  1  0  0  0  0
 23 25  1  0  0  0  0
 23 26  1  0  0  0  0
 23 72  1  1  0  0  0
 24 53  1  0  0  0  0
 24 73  1  0  0  0  0
 25 27  1  0  0  0  0
 25 74  1  0  0  0  0
 25 75  1  0  0  0  0
 26 76  1  0  0  0  0
 26 77  1  0  0  0  0
 26 78  1  0  0  0  0
 28 52  1  0  0  0  0
 29 30  1  0  0  0  0
 29 79  1  0  0  0  0
 29 80  1  0  0  0  0
 30 31  1  0  0  0  0
 30 81  1  0  0  0  0
 30 82  1  0  0  0  0
 31 32  1  0  0  0  0
 31 83  1  0  0  0  0
 31 84  1  0  0  0  0
 32 33  1  0  0  0  0
 32 85  1  0  0  0  0
 32 86  1  0  0  0  0
 33 34  1  0  0  0  0
 33 87  1  0  0  0  0
 33 88  1  0  0  0  0
 34 35  1  0  0  0  0
 34 89  1  0  0  0  0
 34 90  1  0  0  0  0
 35 36  1  0  0  0  0
 35 91  1  0  0  0  0
 35 92  1  0  0  0  0
 36 37  1  0  0  0  0
 36 93  1  0  0  0  0
 36 94  1  0  0  0  0
 37 38  1  0  0  0  0
 37 95  1  0  0  0  0
 37 96  1  0  0  0  0
 38 39  1  0  0  0  0
 38 97  1  0  0  0  0
 38 98  1  0  0  0  0
 39 40  1  0  0  0  0
 39 99  1  0  0  0  0
 39100  1  0  0  0  0
 40 41  1  0  0  0  0
 40101  1  0  0  0  0
 40102  1  0  0  0  0
 41 42  1  0  0  0  0
 41103  1  0  0  0  0
 41104  1  0  0  0  0
 42 43  1  0  0  0  0
 42105  1  0  0  0  0
 42106  1  0  0  0  0
 43107  1  0  0  0  0
 43108  1  0  0  0  0
 43109  1  0  0  0  0
 44 45  1  0  0  0  0
 44110  1  0  0  0  0
 44111  1  0  0  0  0
 45 46  1  0  0  0  0
 45112  1  0  0  0  0
 45113  1  0  0  0  0
 46 47  1  0  0  0  0
 46114  1  0  0  0  0
 46115  1  0  0  0  0
 47 48  1  0  0  0  0
 47116  1  0  0  0  0
 47117  1  0  0  0  0
 48 49  1  0  0  0  0
 48118  1  6  0  0  0
 50 52  1  0  0  0  0
 50119  1  0  0  0  0
 50120  1  0  0  0  0
 51 58  1  0  0  0  0
 52121  1  1  0  0  0
 53 54  2  0  0  0  0
 53 58  1  0  0  0  0
 54 55  1  0  0  0  0
 54122  1  0  0  0  0
 55 56  2  0  0  0  0
 55123  1  0  0  0  0
 56 57  1  0  0  0  0
 56124  1  0  0  0  0
 57 58  2  0  0  0  0
 57125  1  0  0  0  0
M  END
$$$$