/media/chris/experiments/cd1a-new-docking/inputs/ligands/1xz0_ligand.pdb
 OpenBabel07022319323D

125127  0  0  1  0  0  0  0  0999 V2000
  -37.6214   56.7442   58.0079 N   0  0  0  0  0  0  0  0  0  0  0  0
  -38.1987   57.8107   57.3940 C   0  0  0  0  0  0  0  0  0  0  0  0
  -34.7303   58.7191   62.6838 O   0  0  0  0  0  0  0  0  0  0  0  0
  -36.2600   54.8824   71.6738 Si  0  0  0  0  0  0  0  0  0  0  0  0
  -37.6369   55.5250   57.3159 O   0  0  0  0  0  0  0  0  0  0  0  0
  -35.7869   56.4714   71.0051 O   0  0  0  0  0  0  0  0  0  0  0  0
  -36.9674   56.6757   59.3184 C   0  0  0  0  0  0  0  0  0  0  0  0
  -32.4268   56.4934   68.0790 N   0  0  0  0  0  0  0  0  0  0  0  0
  -34.5507   57.5039   64.6410 O   0  0  0  0  0  0  0  0  0  0  0  0
  -38.0028   57.0570   60.3963 C   0  0  0  0  0  0  0  0  0  0  0  0
  -36.8950   59.8150   64.6310 N   0  0  0  0  0  0  0  0  0  0  0  0
  -34.5266   56.8050   67.2985 O   0  0  0  0  0  0  0  0  0  0  0  0
  -37.5311   57.0701   61.8602 C   0  0  0  0  0  0  0  0  0  0  0  0
  -34.6134   56.6150   70.3282 N   0  0  0  0  0  0  0  0  0  0  0  0
  -34.7636   60.6081   64.5976 O   0  0  0  0  0  0  0  0  0  0  0  0
  -37.6390   58.4030   62.6110 C   0  0  0  0  0  0  0  0  0  0  0  0
  -36.1032   61.5987   67.2398 N   0  0  0  0  0  0  0  0  0  0  0  0
  -38.7106   57.7041   56.2798 O   0  0  0  0  0  0  0  0  0  0  0  0
  -36.7890   58.5530   63.8960 C   0  0  1  0  0  0  0  0  0  0  0  0
  -34.8605   54.5625   69.4385 O   0  0  0  0  0  0  0  0  0  0  0  0
  -35.3080   58.3090   63.6770 C   0  0  0  0  0  0  0  0  0  0  0  0
  -38.1978   62.3745   67.1849 O   0  0  0  0  0  0  0  0  0  0  0  0
  -33.1344   57.6899   64.8237 C   0  0  1  0  0  0  0  0  0  0  0  0
  -39.4177   62.4403   69.6115 O   0  0  0  0  0  0  0  0  0  0  0  0
  -32.8852   58.0816   66.2724 C   0  0  0  0  0  0  0  0  0  0  0  0
  -32.2823   56.4918   64.4237 C   0  0  0  0  0  0  0  0  0  0  0  0
  -33.3392   57.0327   67.2574 C   0  0  0  0  0  0  0  0  0  0  0  0
  -35.9390   60.7142   64.9223 C   0  0  0  0  0  0  0  0  0  0  0  0
  -38.2008   59.1662   58.1085 C   0  0  0  0  0  0  0  0  0  0  0  0
  -39.5984   59.7384   58.3821 C   0  0  0  0  0  0  0  0  0  0  0  0
  -39.4819   61.1048   59.0846 C   0  0  0  0  0  0  0  0  0  0  0  0
  -38.7308   62.1619   58.2529 C   0  0  0  0  0  0  0  0  0  0  0  0
  -38.5851   63.5329   58.9392 C   0  0  0  0  0  0  0  0  0  0  0  0
  -37.8427   64.5656   58.0654 C   0  0  0  0  0  0  0  0  0  0  0  0
  -38.5336   64.8813   56.7183 C   0  0  0  0  0  0  0  0  0  0  0  0
  -37.7670   65.8965   55.8628 C   0  0  0  0  0  0  0  0  0  0  0  0
  -38.4223   66.2538   54.5249 C   0  0  0  0  0  0  0  0  0  0  0  0
  -39.8125   66.8824   54.7311 C   0  0  0  0  0  0  0  0  0  0  0  0
  -40.5306   67.2482   53.4233 C   0  0  0  0  0  0  0  0  0  0  0  0
  -40.8144   66.0819   52.4710 C   0  0  0  0  0  0  0  0  0  0  0  0
  -41.5237   66.4922   51.1564 C   0  0  0  0  0  0  0  0  0  0  0  0
  -41.7937   65.2705   50.2549 C   0  0  0  0  0  0  0  0  0  0  0  0
  -42.4786   65.5323   48.9082 C   0  0  0  0  0  0  0  0  0  0  0  0
  -33.9546   57.9274   70.4026 C   0  0  0  0  0  0  0  0  0  0  0  0
  -32.6455   57.8351   71.2092 C   0  0  0  0  0  0  0  0  0  0  0  0
  -32.2162   56.4280   71.5905 C   0  0  0  0  0  0  0  0  0  0  0  0
  -31.8085   55.5788   70.3837 C   0  0  0  0  0  0  0  0  0  0  0  0
  -32.7321   55.5432   69.1547 C   0  0  1  0  0  0  0  0  0  0  0  0
  -34.1667   55.5487   69.6453 C   0  0  0  0  0  0  0  0  0  0  0  0
  -37.7828   62.4076   65.8199 C   0  0  0  0  0  0  0  0  0  0  0  0
  -37.1060   61.8506   67.9668 C   0  0  0  0  0  0  0  0  0  0  0  0
  -36.3172   61.8913   65.8097 C   0  0  1  0  0  0  0  0  0  0  0  0
  -38.3089   61.9757   70.2001 C   0  0  0  0  0  0  0  0  0  0  0  0
  -38.2944   61.7702   71.5859 C   0  0  0  0  0  0  0  0  0  0  0  0
  -37.1399   61.2923   72.2286 C   0  0  0  0  0  0  0  0  0  0  0  0
  -35.9899   61.0049   71.4914 C   0  0  0  0  0  0  0  0  0  0  0  0
  -36.0014   61.2023   70.1078 C   0  0  0  0  0  0  0  0  0  0  0  0
  -37.1540   61.6894   69.4620 C   0  0  0  0  0  0  0  0  0  0  0  0
  -37.5150   54.9988   72.3279 H   0  0  0  0  0  0  0  0  0  0  0  0
  -35.2792   54.4497   72.6050 H   0  0  0  0  0  0  0  0  0  0  0  0
  -36.3617   53.9365   70.6196 H   0  0  0  0  0  0  0  0  0  0  0  0
  -38.0822   55.6433   56.4623 H   0  0  0  0  0  0  0  0  0  0  0  0
  -36.1450   57.3596   59.3486 H   0  0  0  0  0  0  0  0  0  0  0  0
  -36.5979   55.6872   59.4951 H   0  0  0  0  0  0  0  0  0  0  0  0
  -31.4859   56.7533   67.9514 H   0  0  0  0  0  0  0  0  0  0  0  0
  -38.8107   56.3590   60.3260 H   0  0  0  0  0  0  0  0  0  0  0  0
  -38.2572   58.0741   60.1826 H   0  0  0  0  0  0  0  0  0  0  0  0
  -37.7963   60.0370   64.9592 H   0  0  0  0  0  0  0  0  0  0  0  0
  -37.1595   56.2219   62.3158 H   0  0  0  0  0  0  0  0  0  0  0  0
  -38.2496   59.1642   62.2753 H   0  0  0  0  0  0  0  0  0  0  0  0
  -37.2383   57.7881   64.4943 H   0  0  0  0  0  0  0  0  0  0  0  0
  -32.8263   58.4686   64.1576 H   0  0  0  0  0  0  0  0  0  0  0  0
  -40.1789   62.6250   70.1258 H   0  0  0  0  0  0  0  0  0  0  0  0
  -33.4134   58.9898   66.4750 H   0  0  0  0  0  0  0  0  0  0  0  0
  -31.8283   58.1961   66.3939 H   0  0  0  0  0  0  0  0  0  0  0  0
  -32.5270   55.6565   65.0461 H   0  0  0  0  0  0  0  0  0  0  0  0
  -31.2471   56.7345   64.5433 H   0  0  0  0  0  0  0  0  0  0  0  0
  -32.4744   56.2430   63.4010 H   0  0  0  0  0  0  0  0  0  0  0  0
  -37.6664   59.8657   57.5002 H   0  0  0  0  0  0  0  0  0  0  0  0
  -37.7441   59.0081   59.0631 H   0  0  0  0  0  0  0  0  0  0  0  0
  -40.1410   59.0627   59.0098 H   0  0  0  0  0  0  0  0  0  0  0  0
  -40.1136   59.8647   57.4528 H   0  0  0  0  0  0  0  0  0  0  0  0
  -38.9599   60.9672   60.0084 H   0  0  0  0  0  0  0  0  0  0  0  0
  -40.4773   61.4690   59.2310 H   0  0  0  0  0  0  0  0  0  0  0  0
  -39.2618   62.3031   57.3348 H   0  0  0  0  0  0  0  0  0  0  0  0
  -37.7388   61.7870   58.1109 H   0  0  0  0  0  0  0  0  0  0  0  0
  -38.0402   63.4023   59.8508 H   0  0  0  0  0  0  0  0  0  0  0  0
  -39.5707   63.9104   59.1153 H   0  0  0  0  0  0  0  0  0  0  0  0
  -36.8641   64.1859   57.8581 H   0  0  0  0  0  0  0  0  0  0  0  0
  -37.8280   65.4798   58.6212 H   0  0  0  0  0  0  0  0  0  0  0  0
  -39.5075   65.2755   56.9210 H   0  0  0  0  0  0  0  0  0  0  0  0
  -38.5741   63.9676   56.1629 H   0  0  0  0  0  0  0  0  0  0  0  0
  -36.7980   65.4914   55.6584 H   0  0  0  0  0  0  0  0  0  0  0  0
  -37.7423   66.8028   56.4310 H   0  0  0  0  0  0  0  0  0  0  0  0
  -38.5257   65.3643   53.9393 H   0  0  0  0  0  0  0  0  0  0  0  0
  -37.8007   66.9670   54.0250 H   0  0  0  0  0  0  0  0  0  0  0  0
  -39.6965   67.7733   55.3123 H   0  0  0  0  0  0  0  0  0  0  0  0
  -40.4159   66.1475   55.2217 H   0  0  0  0  0  0  0  0  0  0  0  0
  -39.9224   67.9575   52.9019 H   0  0  0  0  0  0  0  0  0  0  0  0
  -41.4884   67.6270   53.7132 H   0  0  0  0  0  0  0  0  0  0  0  0
  -41.4359   65.3760   52.9812 H   0  0  0  0  0  0  0  0  0  0  0  0
  -39.8648   65.6743   52.1933 H   0  0  0  0  0  0  0  0  0  0  0  0
  -40.9022   67.1841   50.6273 H   0  0  0  0  0  0  0  0  0  0  0  0
  -42.4632   66.9388   51.4070 H   0  0  0  0  0  0  0  0  0  0  0  0
  -42.4140   64.5946   50.8057 H   0  0  0  0  0  0  0  0  0  0  0  0
  -40.8246   64.8933   50.0032 H   0  0  0  0  0  0  0  0  0  0  0  0
  -43.4633   65.9153   49.0773 H   0  0  0  0  0  0  0  0  0  0  0  0
  -42.5415   64.6178   48.3563 H   0  0  0  0  0  0  0  0  0  0  0  0
  -41.9089   66.2465   48.3512 H   0  0  0  0  0  0  0  0  0  0  0  0
  -34.6123   58.6239   70.8792 H   0  0  0  0  0  0  0  0  0  0  0  0
  -33.7245   58.2533   69.4098 H   0  0  0  0  0  0  0  0  0  0  0  0
  -32.7719   58.3980   72.1103 H   0  0  0  0  0  0  0  0  0  0  0  0
  -31.8765   58.2165   70.5703 H   0  0  0  0  0  0  0  0  0  0  0  0
  -33.0320   55.9454   72.0869 H   0  0  0  0  0  0  0  0  0  0  0  0
  -31.3585   56.5159   72.2242 H   0  0  0  0  0  0  0  0  0  0  0  0
  -31.7060   54.5712   70.7288 H   0  0  0  0  0  0  0  0  0  0  0  0
  -30.9188   56.0521   70.0241 H   0  0  0  0  0  0  0  0  0  0  0  0
  -32.5460   54.6310   68.6274 H   0  0  0  0  0  0  0  0  0  0  0  0
  -37.8283   63.4072   65.4409 H   0  0  0  0  0  0  0  0  0  0  0  0
  -38.4162   61.8067   65.2013 H   0  0  0  0  0  0  0  0  0  0  0  0
  -35.6851   62.6269   65.3578 H   0  0  0  0  0  0  0  0  0  0  0  0
  -39.1408   61.9720   72.1406 H   0  0  0  0  0  0  0  0  0  0  0  0
  -37.1422   61.1530   73.2512 H   0  0  0  0  0  0  0  0  0  0  0  0
  -35.1422   60.6514   71.9619 H   0  0  0  0  0  0  0  0  0  0  0  0
  -35.1570   60.9889   69.5541 H   0  0  0  0  0  0  0  0  0  0  0  0
  1  2  1  0  0  0  0
  1  5  1  0  0  0  0
  1  7  1  0  0  0  0
  2 18  2  0  0  0  0
  2 29  1  0  0  0  0
  3 21  2  0  0  0  0
  4  6  1  0  0  0  0
  4 59  1  0  0  0  0
  4 60  1  0  0  0  0
  4 61  1  0  0  0  0
  5 62  1  0  0  0  0
  6 14  1  0  0  0  0
  7 10  1  0  0  0  0
  7 63  1  0  0  0  0
  7 64  1  0  0  0  0
  8 27  1  0  0  0  0
  8 48  1  0  0  0  0
  8 65  1  0  0  0  0
  9 21  1  0  0  0  0
  9 23  1  0  0  0  0
 10 13  1  0  0  0  0
 10 66  1  0  0  0  0
 10 67  1  0  0  0  0
 11 19  1  0  0  0  0
 11 28  1  0  0  0  0
 11 68  1  0  0  0  0
 12 27  2  0  0  0  0
 13 16  2  0  0  0  0
 13 69  1  0  0  0  0
 14 44  1  0  0  0  0
 14 49  1  0  0  0  0
 15 28  2  0  0  0  0
 16 19  1  0  0  0  0
 16 70  1  0  0  0  0
 17 51  2  0  0  0  0
 17 52  1  0  0  0  0
 19 21  1  0  0  0  0
 19 71  1  1  0  0  0
 20 49  2  0  0  0  0
 22 50  1  0  0  0  0
 22 51  1  0  0  0  0
 23 25  1  0  0  0  0
 23 26  1  0  0  0  0
 23 72  1  6  0  0  0
 24 53  1  0  0  0  0
 24 73  1  0  0  0  0
 25 27  1  0  0  0  0
 25 74  1  0  0  0  0
 25 75  1  0  0  0  0
 26 76  1  0  0  0  0
 26 77  1  0  0  0  0
 26 78  1  0  0  0  0
 28 52  1  0  0  0  0
 29 30  1  0  0  0  0
 29 79  1  0  0  0  0
 29 80  1  0  0  0  0
 30 31  1  0  0  0  0
 30 81  1  0  0  0  0
 30 82  1  0  0  0  0
 31 32  1  0  0  0  0
 31 83  1  0  0  0  0
 31 84  1  0  0  0  0
 32 33  1  0  0  0  0
 32 85  1  0  0  0  0
 32 86  1  0  0  0  0
 33 34  1  0  0  0  0
 33 87  1  0  0  0  0
 33 88  1  0  0  0  0
 34 35  1  0  0  0  0
 34 89  1  0  0  0  0
 34 90  1  0  0  0  0
 35 36  1  0  0  0  0
 35 91  1  0  0  0  0
 35 92  1  0  0  0  0
 36 37  1  0  0  0  0
 36 93  1  0  0  0  0
 36 94  1  0  0  0  0
 37 38  1  0  0  0  0
 37 95  1  0  0  0  0
 37 96  1  0  0  0  0
 38 39  1  0  0  0  0
 38 97  1  0  0  0  0
 38 98  1  0  0  0  0
 39 40  1  0  0  0  0
 39 99  1  0  0  0  0
 39100  1  0  0  0  0
 40 41  1  0  0  0  0
 40101  1  0  0  0  0
 40102  1  0  0  0  0
 41 42  1  0  0  0  0
 41103  1  0  0  0  0
 41104  1  0  0  0  0
 42 43  1  0  0  0  0
 42105  1  0  0  0  0
 42106  1  0  0  0  0
 43107  1  0  0  0  0
 43108  1  0  0  0  0
 43109  1  0  0  0  0
 44 45  1  0  0  0  0
 44110  1  0  0  0  0
 44111  1  0  0  0  0
 45 46  1  0  0  0  0
 45112  1  0  0  0  0
 45113  1  0  0  0  0
 46 47  1  0  0  0  0
 46114  1  0  0  0  0
 46115  1  0  0  0  0
 47 48  1  0  0  0  0
 47116  1  0  0  0  0
 47117  1  0  0  0  0
 48 49  1  0  0  0  0
 48118  1  6  0  0  0
 50 52  1  0  0  0  0
 50119  1  0  0  0  0
 50120  1  0  0  0  0
 51 58  1  0  0  0  0
 52121  1  6  0  0  0
 53 54  2  0  0  0  0
 53 58  1  0  0  0  0
 54 55  1  0  0  0  0
 54122  1  0  0  0  0
 55 56  2  0  0  0  0
 55123  1  0  0  0  0
 56 57  1  0  0  0  0
 56124  1  0  0  0  0
 57 58  2  0  0  0  0
 57125  1  0  0  0  0
M  END
$$$$