/media/chris/experiments/cd1a-new-docking/inputs/ligands/1xz0_ligand.pdb
 OpenBabel07022319323D

125127  0  0  1  0  0  0  0  0999 V2000
  -40.5527   58.4476   59.2550 N   0  0  0  0  0  0  0  0  0  0  0  0
  -41.2611   59.5743   58.9784 C   0  0  0  0  0  0  0  0  0  0  0  0
  -34.5145   59.2300   63.5740 O   0  0  0  0  0  0  0  0  0  0  0  0
  -32.4512   63.3313   58.3447 Si  0  0  0  0  0  0  0  0  0  0  0  0
  -40.9314   57.2758   58.5849 O   0  0  0  0  0  0  0  0  0  0  0  0
  -31.0861   62.9341   59.4285 O   0  0  0  0  0  0  0  0  0  0  0  0
  -39.4223   58.2695   60.1717 C   0  0  0  0  0  0  0  0  0  0  0  0
  -32.4136   59.7582   62.2578 N   0  0  0  0  0  0  0  0  0  0  0  0
  -34.8102   56.9389   63.5156 O   0  0  0  0  0  0  0  0  0  0  0  0
  -39.1167   59.6292   60.8329 C   0  0  0  0  0  0  0  0  0  0  0  0
  -36.8950   59.8150   64.6310 N   0  0  0  0  0  0  0  0  0  0  0  0
  -33.1161   59.2469   64.3460 O   0  0  0  0  0  0  0  0  0  0  0  0
  -37.9469   59.6864   61.8299 C   0  0  0  0  0  0  0  0  0  0  0  0
  -31.2453   62.0353   60.4399 N   0  0  0  0  0  0  0  0  0  0  0  0
  -37.6467   59.1566   66.6741 O   0  0  0  0  0  0  0  0  0  0  0  0
  -37.6390   58.4030   62.6110 C   0  0  0  0  0  0  0  0  0  0  0  0
  -38.7655   62.0216   66.1297 N   0  0  0  0  0  0  0  0  0  0  0  0
  -40.9852   60.6477   59.5136 O   0  0  0  0  0  0  0  0  0  0  0  0
  -36.7890   58.5530   63.8960 C   0  0  1  0  0  0  0  0  0  0  0  0
  -33.4574   62.4482   60.4761 O   0  0  0  0  0  0  0  0  0  0  0  0
  -35.3080   58.3090   63.6770 C   0  0  0  0  0  0  0  0  0  0  0  0
  -37.4262   63.5725   65.2393 O   0  0  0  0  0  0  0  0  0  0  0  0
  -33.4580   56.5871   63.8642 C   0  0  1  0  0  0  0  0  0  0  0  0
  -39.0131   64.9012   63.2443 O   0  0  0  0  0  0  0  0  0  0  0  0
  -32.5112   57.4364   63.0296 C   0  0  0  0  0  0  0  0  0  0  0  0
  -33.1369   56.7038   65.3491 C   0  0  0  0  0  0  0  0  0  0  0  0
  -32.6745   58.9171   63.2691 C   0  0  0  0  0  0  0  0  0  0  0  0
  -37.2920   60.0330   65.8968 C   0  0  0  0  0  0  0  0  0  0  0  0
  -42.4256   59.4933   57.9857 C   0  0  0  0  0  0  0  0  0  0  0  0
  -43.1426   60.8273   57.7367 C   0  0  0  0  0  0  0  0  0  0  0  0
  -44.3014   60.6268   56.7411 C   0  0  0  0  0  0  0  0  0  0  0  0
  -45.0676   61.9240   56.4199 C   0  0  0  0  0  0  0  0  0  0  0  0
  -46.2426   61.7488   55.4397 C   0  0  0  0  0  0  0  0  0  0  0  0
  -46.9707   63.0743   55.1326 C   0  0  0  0  0  0  0  0  0  0  0  0
  -47.5692   63.7797   56.3719 C   0  0  0  0  0  0  0  0  0  0  0  0
  -48.3011   65.0844   56.0368 C   0  0  0  0  0  0  0  0  0  0  0  0
  -48.8970   65.8284   57.2361 C   0  0  0  0  0  0  0  0  0  0  0  0
  -49.9167   64.9542   57.9886 C   0  0  0  0  0  0  0  0  0  0  0  0
  -50.5642   65.6512   59.1948 C   0  0  0  0  0  0  0  0  0  0  0  0
  -49.5995   66.1251   60.2866 C   0  0  0  0  0  0  0  0  0  0  0  0
  -48.7509   64.9945   60.9201 C   0  0  0  0  0  0  0  0  0  0  0  0
  -47.8170   65.5378   62.0205 C   0  0  0  0  0  0  0  0  0  0  0  0
  -46.7990   66.6081   61.6089 C   0  0  0  0  0  0  0  0  0  0  0  0
  -30.0639   61.2520   60.8306 C   0  0  0  0  0  0  0  0  0  0  0  0
  -29.5798   61.6595   62.2350 C   0  0  0  0  0  0  0  0  0  0  0  0
  -30.4933   62.6156   62.9840 C   0  0  0  0  0  0  0  0  0  0  0  0
  -31.8327   61.9835   63.3718 C   0  0  0  0  0  0  0  0  0  0  0  0
  -32.6251   61.2095   62.3051 C   0  0  1  0  0  0  0  0  0  0  0  0
  -32.4687   61.9373   60.9843 C   0  0  0  0  0  0  0  0  0  0  0  0
  -36.5259   62.5734   65.7165 C   0  0  0  0  0  0  0  0  0  0  0  0
  -38.7685   63.1323   65.5264 C   0  0  0  0  0  0  0  0  0  0  0  0
  -37.4151   61.4760   66.3644 C   0  0  1  0  0  0  0  0  0  0  0  0
  -40.0597   64.7609   64.0669 C   0  0  0  0  0  0  0  0  0  0  0  0
  -41.2479   65.4539   63.8005 C   0  0  0  0  0  0  0  0  0  0  0  0
  -42.3574   65.3308   64.6538 C   0  0  0  0  0  0  0  0  0  0  0  0
  -42.2947   64.5054   65.7778 C   0  0  0  0  0  0  0  0  0  0  0  0
  -41.1138   63.8070   66.0444 C   0  0  0  0  0  0  0  0  0  0  0  0
  -39.9973   63.9351   65.1960 C   0  0  0  0  0  0  0  0  0  0  0  0
  -32.0290   64.2864   57.3823 H   0  0  0  0  0  0  0  0  0  0  0  0
  -33.5206   63.8697   59.1082 H   0  0  0  0  0  0  0  0  0  0  0  0
  -32.8882   62.1536   57.6826 H   0  0  0  0  0  0  0  0  0  0  0  0
  -41.6805   57.4663   57.9988 H   0  0  0  0  0  0  0  0  0  0  0  0
  -38.5653   57.9307   59.6280 H   0  0  0  0  0  0  0  0  0  0  0  0
  -39.6641   57.5422   60.9184 H   0  0  0  0  0  0  0  0  0  0  0  0
  -32.0550   59.3750   61.4248 H   0  0  0  0  0  0  0  0  0  0  0  0
  -39.9983   59.9371   61.3551 H   0  0  0  0  0  0  0  0  0  0  0  0
  -38.8181   60.2643   60.0252 H   0  0  0  0  0  0  0  0  0  0  0  0
  -36.6386   60.6199   64.1253 H   0  0  0  0  0  0  0  0  0  0  0  0
  -37.3952   60.5477   61.9667 H   0  0  0  0  0  0  0  0  0  0  0  0
  -37.9824   57.4826   62.2948 H   0  0  0  0  0  0  0  0  0  0  0  0
  -37.2383   57.7881   64.4943 H   0  0  0  0  0  0  0  0  0  0  0  0
  -33.3326   55.5469   63.6468 H   0  0  0  0  0  0  0  0  0  0  0  0
  -39.0780   65.4594   62.4946 H   0  0  0  0  0  0  0  0  0  0  0  0
  -32.6974   57.2365   61.9950 H   0  0  0  0  0  0  0  0  0  0  0  0
  -31.5137   57.1758   63.3157 H   0  0  0  0  0  0  0  0  0  0  0  0
  -33.2380   57.7236   65.6569 H   0  0  0  0  0  0  0  0  0  0  0  0
  -32.1333   56.3764   65.5238 H   0  0  0  0  0  0  0  0  0  0  0  0
  -33.8138   56.0933   65.9095 H   0  0  0  0  0  0  0  0  0  0  0  0
  -43.1414   58.7949   58.3662 H   0  0  0  0  0  0  0  0  0  0  0  0
  -42.0063   59.1932   57.0481 H   0  0  0  0  0  0  0  0  0  0  0  0
  -42.4471   61.5331   57.3330 H   0  0  0  0  0  0  0  0  0  0  0  0
  -43.5351   61.1924   58.6627 H   0  0  0  0  0  0  0  0  0  0  0  0
  -44.9892   59.9220   57.1597 H   0  0  0  0  0  0  0  0  0  0  0  0
  -43.8720   60.2799   55.8245 H   0  0  0  0  0  0  0  0  0  0  0  0
  -44.3780   62.6219   55.9929 H   0  0  0  0  0  0  0  0  0  0  0  0
  -45.4905   62.2627   57.3426 H   0  0  0  0  0  0  0  0  0  0  0  0
  -46.9451   61.0645   55.8676 H   0  0  0  0  0  0  0  0  0  0  0  0
  -45.8404   61.3823   54.5184 H   0  0  0  0  0  0  0  0  0  0  0  0
  -47.7672   62.8673   54.4488 H   0  0  0  0  0  0  0  0  0  0  0  0
  -46.2353   63.7390   54.7298 H   0  0  0  0  0  0  0  0  0  0  0  0
  -46.7739   64.0024   57.0522 H   0  0  0  0  0  0  0  0  0  0  0  0
  -48.2907   63.1133   56.7964 H   0  0  0  0  0  0  0  0  0  0  0  0
  -49.0989   64.8519   55.3627 H   0  0  0  0  0  0  0  0  0  0  0  0
  -47.5638   65.7383   55.6200 H   0  0  0  0  0  0  0  0  0  0  0  0
  -49.3869   66.7138   56.8883 H   0  0  0  0  0  0  0  0  0  0  0  0
  -48.1022   66.0741   57.9091 H   0  0  0  0  0  0  0  0  0  0  0  0
  -49.4151   64.0755   58.3366 H   0  0  0  0  0  0  0  0  0  0  0  0
  -50.7040   64.7320   57.2989 H   0  0  0  0  0  0  0  0  0  0  0  0
  -51.2529   64.9642   59.6405 H   0  0  0  0  0  0  0  0  0  0  0  0
  -51.0232   66.5368   58.8074 H   0  0  0  0  0  0  0  0  0  0  0  0
  -50.1724   66.5891   61.0621 H   0  0  0  0  0  0  0  0  0  0  0  0
  -48.9127   66.7988   59.8182 H   0  0  0  0  0  0  0  0  0  0  0  0
  -48.1583   64.5351   60.1567 H   0  0  0  0  0  0  0  0  0  0  0  0
  -49.4162   64.2843   61.3649 H   0  0  0  0  0  0  0  0  0  0  0  0
  -47.2696   64.7082   62.4169 H   0  0  0  0  0  0  0  0  0  0  0  0
  -48.4657   66.0269   62.7168 H   0  0  0  0  0  0  0  0  0  0  0  0
  -46.1080   66.1915   60.9060 H   0  0  0  0  0  0  0  0  0  0  0  0
  -46.2676   66.9463   62.4738 H   0  0  0  0  0  0  0  0  0  0  0  0
  -47.3109   67.4332   61.1595 H   0  0  0  0  0  0  0  0  0  0  0  0
  -29.2787   61.4250   60.1246 H   0  0  0  0  0  0  0  0  0  0  0  0
  -30.3283   60.2153   60.8455 H   0  0  0  0  0  0  0  0  0  0  0  0
  -28.6234   62.1283   62.1320 H   0  0  0  0  0  0  0  0  0  0  0  0
  -29.5556   60.7592   62.8127 H   0  0  0  0  0  0  0  0  0  0  0  0
  -30.6845   63.4636   62.3601 H   0  0  0  0  0  0  0  0  0  0  0  0
  -29.9950   62.8904   63.8901 H   0  0  0  0  0  0  0  0  0  0  0  0
  -32.4640   62.7741   63.7200 H   0  0  0  0  0  0  0  0  0  0  0  0
  -31.5667   61.2353   64.0890 H   0  0  0  0  0  0  0  0  0  0  0  0
  -33.6567   61.2172   62.5890 H   0  0  0  0  0  0  0  0  0  0  0  0
  -35.8590   62.9892   66.4427 H   0  0  0  0  0  0  0  0  0  0  0  0
  -35.9238   62.1762   64.9262 H   0  0  0  0  0  0  0  0  0  0  0  0
  -37.1134   61.3290   67.3804 H   0  0  0  0  0  0  0  0  0  0  0  0
  -41.3088   66.0614   62.9685 H   0  0  0  0  0  0  0  0  0  0  0  0
  -43.2233   65.8534   64.4484 H   0  0  0  0  0  0  0  0  0  0  0  0
  -43.1098   64.4120   66.4038 H   0  0  0  0  0  0  0  0  0  0  0  0
  -41.0595   63.1915   66.8710 H   0  0  0  0  0  0  0  0  0  0  0  0
  1  2  1  0  0  0  0
  1  5  1  0  0  0  0
  1  7  1  0  0  0  0
  2 18  2  0  0  0  0
  2 29  1  0  0  0  0
  3 21  2  0  0  0  0
  4  6  1  0  0  0  0
  4 59  1  0  0  0  0
  4 60  1  0  0  0  0
  4 61  1  0  0  0  0
  5 62  1  0  0  0  0
  6 14  1  0  0  0  0
  7 10  1  0  0  0  0
  7 63  1  0  0  0  0
  7 64  1  0  0  0  0
  8 27  1  0  0  0  0
  8 48  1  0  0  0  0
  8 65  1  0  0  0  0
  9 21  1  0  0  0  0
  9 23  1  0  0  0  0
 10 13  1  0  0  0  0
 10 66  1  0  0  0  0
 10 67  1  0  0  0  0
 11 19  1  0  0  0  0
 11 28  1  0  0  0  0
 11 68  1  0  0  0  0
 12 27  2  0  0  0  0
 13 16  2  0  0  0  0
 13 69  1  0  0  0  0
 14 44  1  0  0  0  0
 14 49  1  0  0  0  0
 15 28  2  0  0  0  0
 16 19  1  0  0  0  0
 16 70  1  0  0  0  0
 17 51  2  0  0  0  0
 17 52  1  0  0  0  0
 19 21  1  0  0  0  0
 19 71  1  1  0  0  0
 20 49  2  0  0  0  0
 22 50  1  0  0  0  0
 22 51  1  0  0  0  0
 23 25  1  0  0  0  0
 23 26  1  0  0  0  0
 23 72  1  6  0  0  0
 24 53  1  0  0  0  0
 24 73  1  0  0  0  0
 25 27  1  0  0  0  0
 25 74  1  0  0  0  0
 25 75  1  0  0  0  0
 26 76  1  0  0  0  0
 26 77  1  0  0  0  0
 26 78  1  0  0  0  0
 28 52  1  0  0  0  0
 29 30  1  0  0  0  0
 29 79  1  0  0  0  0
 29 80  1  0  0  0  0
 30 31  1  0  0  0  0
 30 81  1  0  0  0  0
 30 82  1  0  0  0  0
 31 32  1  0  0  0  0
 31 83  1  0  0  0  0
 31 84  1  0  0  0  0
 32 33  1  0  0  0  0
 32 85  1  0  0  0  0
 32 86  1  0  0  0  0
 33 34  1  0  0  0  0
 33 87  1  0  0  0  0
 33 88  1  0  0  0  0
 34 35  1  0  0  0  0
 34 89  1  0  0  0  0
 34 90  1  0  0  0  0
 35 36  1  0  0  0  0
 35 91  1  0  0  0  0
 35 92  1  0  0  0  0
 36 37  1  0  0  0  0
 36 93  1  0  0  0  0
 36 94  1  0  0  0  0
 37 38  1  0  0  0  0
 37 95  1  0  0  0  0
 37 96  1  0  0  0  0
 38 39  1  0  0  0  0
 38 97  1  0  0  0  0
 38 98  1  0  0  0  0
 39 40  1  0  0  0  0
 39 99  1  0  0  0  0
 39100  1  0  0  0  0
 40 41  1  0  0  0  0
 40101  1  0  0  0  0
 40102  1  0  0  0  0
 41 42  1  0  0  0  0
 41103  1  0  0  0  0
 41104  1  0  0  0  0
 42 43  1  0  0  0  0
 42105  1  0  0  0  0
 42106  1  0  0  0  0
 43107  1  0  0  0  0
 43108  1  0  0  0  0
 43109  1  0  0  0  0
 44 45  1  0  0  0  0
 44110  1  0  0  0  0
 44111  1  0  0  0  0
 45 46  1  0  0  0  0
 45112  1  0  0  0  0
 45113  1  0  0  0  0
 46 47  1  0  0  0  0
 46114  1  0  0  0  0
 46115  1  0  0  0  0
 47 48  1  0  0  0  0
 47116  1  0  0  0  0
 47117  1  0  0  0  0
 48 49  1  0  0  0  0
 48118  1  1  0  0  0
 50 52  1  0  0  0  0
 50119  1  0  0  0  0
 50120  1  0  0  0  0
 51 58  1  0  0  0  0
 52121  1  1  0  0  0
 53 54  2  0  0  0  0
 53 58  1  0  0  0  0
 54 55  1  0  0  0  0
 54122  1  0  0  0  0
 55 56  2  0  0  0  0
 55123  1  0  0  0  0
 56 57  1  0  0  0  0
 56124  1  0  0  0  0
 57 58  2  0  0  0  0
 57125  1  0  0  0  0
M  END
$$$$