/media/chris/experiments/cd1a-new-docking/inputs/ligands/1xz0_ligand.pdb
 OpenBabel07022319323D

125127  0  0  1  0  0  0  0  0999 V2000
  -39.4070   55.3381   59.0035 N   0  0  0  0  0  0  0  0  0  0  0  0
  -39.8963   54.3215   58.2453 C   0  0  0  0  0  0  0  0  0  0  0  0
  -34.8470   57.1816   63.6074 O   0  0  0  0  0  0  0  0  0  0  0  0
  -37.4135   66.9275   58.8790 Si  0  0  0  0  0  0  0  0  0  0  0  0
  -39.2095   56.5710   58.3659 O   0  0  0  0  0  0  0  0  0  0  0  0
  -36.2444   65.7403   58.2312 O   0  0  0  0  0  0  0  0  0  0  0  0
  -39.0463   55.3391   60.4247 C   0  0  0  0  0  0  0  0  0  0  0  0
  -34.5934   62.7745   61.1175 N   0  0  0  0  0  0  0  0  0  0  0  0
  -34.3830   59.4453   63.6122 O   0  0  0  0  0  0  0  0  0  0  0  0
  -38.5576   56.7536   60.7988 C   0  0  0  0  0  0  0  0  0  0  0  0
  -36.8950   59.8150   64.6310 N   0  0  0  0  0  0  0  0  0  0  0  0
  -35.7271   61.6768   62.7378 O   0  0  0  0  0  0  0  0  0  0  0  0
  -38.1064   56.9875   62.2504 C   0  0  0  0  0  0  0  0  0  0  0  0
  -35.4879   64.9839   59.0747 N   0  0  0  0  0  0  0  0  0  0  0  0
  -38.5876   59.4141   66.0963 O   0  0  0  0  0  0  0  0  0  0  0  0
  -37.6390   58.4030   62.6110 C   0  0  0  0  0  0  0  0  0  0  0  0
  -36.7378   61.7633   67.2375 N   0  0  0  0  0  0  0  0  0  0  0  0
  -40.1107   53.2110   58.7306 O   0  0  0  0  0  0  0  0  0  0  0  0
  -36.7890   58.5530   63.8960 C   0  0  1  0  0  0  0  0  0  0  0  0
  -37.2106   64.8453   60.5163 O   0  0  0  0  0  0  0  0  0  0  0  0
  -35.3080   58.3090   63.6770 C   0  0  0  0  0  0  0  0  0  0  0  0
  -38.6104   62.6885   68.0309 O   0  0  0  0  0  0  0  0  0  0  0  0
  -33.5507   59.6690   62.4585 C   0  0  1  0  0  0  0  0  0  0  0  0
  -37.7935   64.6288   69.9358 O   0  0  0  0  0  0  0  0  0  0  0  0
  -34.3894   60.3492   61.3870 C   0  0  0  0  0  0  0  0  0  0  0  0
  -32.2764   60.4553   62.7407 C   0  0  0  0  0  0  0  0  0  0  0  0
  -34.9372   61.6862   61.8216 C   0  0  0  0  0  0  0  0  0  0  0  0
  -37.7336   60.1539   65.6256 C   0  0  0  0  0  0  0  0  0  0  0  0
  -40.1763   54.5724   56.7598 C   0  0  0  0  0  0  0  0  0  0  0  0
  -41.6378   54.3577   56.3434 C   0  0  0  0  0  0  0  0  0  0  0  0
  -42.5555   55.3228   57.1184 C   0  0  0  0  0  0  0  0  0  0  0  0
  -44.0482   55.1628   56.7730 C   0  0  0  0  0  0  0  0  0  0  0  0
  -44.9867   56.1277   57.5215 C   0  0  0  0  0  0  0  0  0  0  0  0
  -46.4724   55.9217   57.1590 C   0  0  0  0  0  0  0  0  0  0  0  0
  -47.4475   56.8836   57.8772 C   0  0  0  0  0  0  0  0  0  0  0  0
  -47.1883   58.3615   57.5629 C   0  0  0  0  0  0  0  0  0  0  0  0
  -48.1197   59.3542   58.2656 C   0  0  0  0  0  0  0  0  0  0  0  0
  -49.5928   59.0974   57.8991 C   0  0  0  0  0  0  0  0  0  0  0  0
  -50.5782   60.0732   58.5600 C   0  0  0  0  0  0  0  0  0  0  0  0
  -50.5710   60.0907   60.0921 C   0  0  0  0  0  0  0  0  0  0  0  0
  -51.5892   61.0738   60.7218 C   0  0  0  0  0  0  0  0  0  0  0  0
  -53.0366   60.7198   60.3243 C   0  0  0  0  0  0  0  0  0  0  0  0
  -53.3702   60.7154   58.8276 C   0  0  0  0  0  0  0  0  0  0  0  0
  -34.1582   64.5767   58.5971 C   0  0  0  0  0  0  0  0  0  0  0  0
  -33.0505   65.2864   59.3983 C   0  0  0  0  0  0  0  0  0  0  0  0
  -33.5291   66.0876   60.5978 C   0  0  0  0  0  0  0  0  0  0  0  0
  -34.1006   65.2099   61.7144 C   0  0  0  0  0  0  0  0  0  0  0  0
  -35.1252   64.1217   61.3529 C   0  0  1  0  0  0  0  0  0  0  0  0
  -36.0267   64.6692   60.2636 C   0  0  0  0  0  0  0  0  0  0  0  0
  -38.9781   62.2280   66.7311 C   0  0  0  0  0  0  0  0  0  0  0  0
  -37.2283   62.3418   68.2486 C   0  0  0  0  0  0  0  0  0  0  0  0
  -37.6957   61.5896   66.1290 C   0  0  1  0  0  0  0  0  0  0  0  0
  -36.8030   63.7989   70.2847 C   0  0  0  0  0  0  0  0  0  0  0  0
  -36.0764   64.0420   71.4577 C   0  0  0  0  0  0  0  0  0  0  0  0
  -35.0259   63.1912   71.8408 C   0  0  0  0  0  0  0  0  0  0  0  0
  -34.6964   62.0817   71.0603 C   0  0  0  0  0  0  0  0  0  0  0  0
  -35.4224   61.8313   69.8925 C   0  0  0  0  0  0  0  0  0  0  0  0
  -36.4700   62.6871   69.5014 C   0  0  0  0  0  0  0  0  0  0  0  0
  -38.0702   67.5808   57.8028 H   0  0  0  0  0  0  0  0  0  0  0  0
  -36.7255   67.8879   59.6667 H   0  0  0  0  0  0  0  0  0  0  0  0
  -38.3735   66.2567   59.6821 H   0  0  0  0  0  0  0  0  0  0  0  0
  -39.4672   56.4979   57.4337 H   0  0  0  0  0  0  0  0  0  0  0  0
  -38.2661   54.6283   60.6006 H   0  0  0  0  0  0  0  0  0  0  0  0
  -39.8940   55.0722   61.0205 H   0  0  0  0  0  0  0  0  0  0  0  0
  -33.9381   62.6616   60.3915 H   0  0  0  0  0  0  0  0  0  0  0  0
  -39.3595   57.4332   60.5988 H   0  0  0  0  0  0  0  0  0  0  0  0
  -37.6754   56.9016   60.2116 H   0  0  0  0  0  0  0  0  0  0  0  0
  -36.2607   60.5165   64.3574 H   0  0  0  0  0  0  0  0  0  0  0  0
  -38.1176   56.2279   62.9488 H   0  0  0  0  0  0  0  0  0  0  0  0
  -37.8799   59.2173   62.0245 H   0  0  0  0  0  0  0  0  0  0  0  0
  -37.2383   57.7881   64.4943 H   0  0  0  0  0  0  0  0  0  0  0  0
  -33.2040   58.7133   62.1248 H   0  0  0  0  0  0  0  0  0  0  0  0
  -37.9986   65.3667   70.4757 H   0  0  0  0  0  0  0  0  0  0  0  0
  -35.2106   59.7091   61.1403 H   0  0  0  0  0  0  0  0  0  0  0  0
  -33.7508   60.5249   60.5466 H   0  0  0  0  0  0  0  0  0  0  0  0
  -32.5312   61.4363   63.0837 H   0  0  0  0  0  0  0  0  0  0  0  0
  -31.6975   60.5302   61.8439 H   0  0  0  0  0  0  0  0  0  0  0  0
  -31.7057   59.9516   63.4926 H   0  0  0  0  0  0  0  0  0  0  0  0
  -39.5643   53.9072   56.1872 H   0  0  0  0  0  0  0  0  0  0  0  0
  -39.9561   55.6037   56.5782 H   0  0  0  0  0  0  0  0  0  0  0  0
  -41.9226   53.3490   56.5582 H   0  0  0  0  0  0  0  0  0  0  0  0
  -41.7351   54.5476   55.2948 H   0  0  0  0  0  0  0  0  0  0  0  0
  -42.2610   56.3260   56.8911 H   0  0  0  0  0  0  0  0  0  0  0  0
  -42.4469   55.0934   58.1579 H   0  0  0  0  0  0  0  0  0  0  0  0
  -44.3403   54.1613   57.0110 H   0  0  0  0  0  0  0  0  0  0  0  0
  -44.1448   55.3922   55.7323 H   0  0  0  0  0  0  0  0  0  0  0  0
  -44.7112   57.1318   57.2751 H   0  0  0  0  0  0  0  0  0  0  0  0
  -44.8811   55.9313   58.5680 H   0  0  0  0  0  0  0  0  0  0  0  0
  -46.7430   54.9187   57.4156 H   0  0  0  0  0  0  0  0  0  0  0  0
  -46.5610   56.1244   56.1122 H   0  0  0  0  0  0  0  0  0  0  0  0
  -47.3499   56.7393   58.9329 H   0  0  0  0  0  0  0  0  0  0  0  0
  -48.4321   56.6545   57.5264 H   0  0  0  0  0  0  0  0  0  0  0  0
  -47.2953   58.4985   56.5072 H   0  0  0  0  0  0  0  0  0  0  0  0
  -46.2039   58.5725   57.9255 H   0  0  0  0  0  0  0  0  0  0  0  0
  -47.8557   60.3483   57.9705 H   0  0  0  0  0  0  0  0  0  0  0  0
  -48.0088   59.2302   59.3226 H   0  0  0  0  0  0  0  0  0  0  0  0
  -49.8474   58.1037   58.2037 H   0  0  0  0  0  0  0  0  0  0  0  0
  -49.6788   59.2378   56.8419 H   0  0  0  0  0  0  0  0  0  0  0  0
  -51.5648   59.8115   58.2391 H   0  0  0  0  0  0  0  0  0  0  0  0
  -50.2674   61.0510   58.2563 H   0  0  0  0  0  0  0  0  0  0  0  0
  -49.5908   60.3675   60.4198 H   0  0  0  0  0  0  0  0  0  0  0  0
  -50.8538   59.1094   60.4116 H   0  0  0  0  0  0  0  0  0  0  0  0
  -51.3689   62.0653   60.3852 H   0  0  0  0  0  0  0  0  0  0  0  0
  -51.5072   61.0059   61.7864 H   0  0  0  0  0  0  0  0  0  0  0  0
  -53.6831   61.4298   60.7963 H   0  0  0  0  0  0  0  0  0  0  0  0
  -53.1696   59.7061   60.6399 H   0  0  0  0  0  0  0  0  0  0  0  0
  -53.2593   61.7044   58.4346 H   0  0  0  0  0  0  0  0  0  0  0  0
  -54.3790   60.3871   58.6880 H   0  0  0  0  0  0  0  0  0  0  0  0
  -52.7050   60.0516   58.3159 H   0  0  0  0  0  0  0  0  0  0  0  0
  -34.0628   64.8333   57.5628 H   0  0  0  0  0  0  0  0  0  0  0  0
  -34.0544   63.5199   58.7288 H   0  0  0  0  0  0  0  0  0  0  0  0
  -32.5402   65.9546   58.7365 H   0  0  0  0  0  0  0  0  0  0  0  0
  -32.4255   64.5113   59.7902 H   0  0  0  0  0  0  0  0  0  0  0  0
  -34.2909   66.7652   60.2731 H   0  0  0  0  0  0  0  0  0  0  0  0
  -32.6806   66.6023   60.9979 H   0  0  0  0  0  0  0  0  0  0  0  0
  -34.5720   65.8640   62.4179 H   0  0  0  0  0  0  0  0  0  0  0  0
  -33.2541   64.6596   62.0687 H   0  0  0  0  0  0  0  0  0  0  0  0
  -35.7125   63.9180   62.2237 H   0  0  0  0  0  0  0  0  0  0  0  0
  -39.3066   63.0464   66.1251 H   0  0  0  0  0  0  0  0  0  0  0  0
  -39.7838   61.5254   66.7758 H   0  0  0  0  0  0  0  0  0  0  0  0
  -37.4647   62.0666   65.1995 H   0  0  0  0  0  0  0  0  0  0  0  0
  -36.3154   64.8549   72.0469 H   0  0  0  0  0  0  0  0  0  0  0  0
  -34.4950   63.3875   72.7037 H   0  0  0  0  0  0  0  0  0  0  0  0
  -33.9268   61.4545   71.3419 H   0  0  0  0  0  0  0  0  0  0  0  0
  -35.1884   61.0113   69.3112 H   0  0  0  0  0  0  0  0  0  0  0  0
  1  2  1  0  0  0  0
  1  5  1  0  0  0  0
  1  7  1  0  0  0  0
  2 18  2  0  0  0  0
  2 29  1  0  0  0  0
  3 21  2  0  0  0  0
  4  6  1  0  0  0  0
  4 59  1  0  0  0  0
  4 60  1  0  0  0  0
  4 61  1  0  0  0  0
  5 62  1  0  0  0  0
  6 14  1  0  0  0  0
  7 10  1  0  0  0  0
  7 63  1  0  0  0  0
  7 64  1  0  0  0  0
  8 27  1  0  0  0  0
  8 48  1  0  0  0  0
  8 65  1  0  0  0  0
  9 21  1  0  0  0  0
  9 23  1  0  0  0  0
 10 13  1  0  0  0  0
 10 66  1  0  0  0  0
 10 67  1  0  0  0  0
 11 19  1  0  0  0  0
 11 28  1  0  0  0  0
 11 68  1  0  0  0  0
 12 27  2  0  0  0  0
 13 16  2  0  0  0  0
 13 69  1  0  0  0  0
 14 44  1  0  0  0  0
 14 49  1  0  0  0  0
 15 28  2  0  0  0  0
 16 19  1  0  0  0  0
 16 70  1  0  0  0  0
 17 51  2  0  0  0  0
 17 52  1  0  0  0  0
 19 21  1  0  0  0  0
 19 71  1  1  0  0  0
 20 49  2  0  0  0  0
 22 50  1  0  0  0  0
 22 51  1  0  0  0  0
 23 25  1  0  0  0  0
 23 26  1  0  0  0  0
 23 72  1  6  0  0  0
 24 53  1  0  0  0  0
 24 73  1  0  0  0  0
 25 27  1  0  0  0  0
 25 74  1  0  0  0  0
 25 75  1  0  0  0  0
 26 76  1  0  0  0  0
 26 77  1  0  0  0  0
 26 78  1  0  0  0  0
 28 52  1  0  0  0  0
 29 30  1  0  0  0  0
 29 79  1  0  0  0  0
 29 80  1  0  0  0  0
 30 31  1  0  0  0  0
 30 81  1  0  0  0  0
 30 82  1  0  0  0  0
 31 32  1  0  0  0  0
 31 83  1  0  0  0  0
 31 84  1  0  0  0  0
 32 33  1  0  0  0  0
 32 85  1  0  0  0  0
 32 86  1  0  0  0  0
 33 34  1  0  0  0  0
 33 87  1  0  0  0  0
 33 88  1  0  0  0  0
 34 35  1  0  0  0  0
 34 89  1  0  0  0  0
 34 90  1  0  0  0  0
 35 36  1  0  0  0  0
 35 91  1  0  0  0  0
 35 92  1  0  0  0  0
 36 37  1  0  0  0  0
 36 93  1  0  0  0  0
 36 94  1  0  0  0  0
 37 38  1  0  0  0  0
 37 95  1  0  0  0  0
 37 96  1  0  0  0  0
 38 39  1  0  0  0  0
 38 97  1  0  0  0  0
 38 98  1  0  0  0  0
 39 40  1  0  0  0  0
 39 99  1  0  0  0  0
 39100  1  0  0  0  0
 40 41  1  0  0  0  0
 40101  1  0  0  0  0
 40102  1  0  0  0  0
 41 42  1  0  0  0  0
 41103  1  0  0  0  0
 41104  1  0  0  0  0
 42 43  1  0  0  0  0
 42105  1  0  0  0  0
 42106  1  0  0  0  0
 43107  1  0  0  0  0
 43108  1  0  0  0  0
 43109  1  0  0  0  0
 44 45  1  0  0  0  0
 44110  1  0  0  0  0
 44111  1  0  0  0  0
 45 46  1  0  0  0  0
 45112  1  0  0  0  0
 45113  1  0  0  0  0
 46 47  1  0  0  0  0
 46114  1  0  0  0  0
 46115  1  0  0  0  0
 47 48  1  0  0  0  0
 47116  1  0  0  0  0
 47117  1  0  0  0  0
 48 49  1  0  0  0  0
 48118  1  1  0  0  0
 50 52  1  0  0  0  0
 50119  1  0  0  0  0
 50120  1  0  0  0  0
 51 58  1  0  0  0  0
 52121  1  6  0  0  0
 53 54  2  0  0  0  0
 53 58  1  0  0  0  0
 54 55  1  0  0  0  0
 54122  1  0  0  0  0
 55 56  2  0  0  0  0
 55123  1  0  0  0  0
 56 57  1  0  0  0  0
 56124  1  0  0  0  0
 57 58  2  0  0  0  0
 57125  1  0  0  0  0
M  END
$$$$