/media/chris/experiments/cd1a-new-docking/inputs/ligands/1xz0_ligand.pdb
 OpenBabel07022319323D

125127  0  0  1  0  0  0  0  0999 V2000
  -40.9734   60.6468   59.6224 N   0  0  0  0  0  0  0  0  0  0  0  0
  -41.2844   59.4730   59.0115 C   0  0  0  0  0  0  0  0  0  0  0  0
  -34.8948   57.7059   62.7003 O   0  0  0  0  0  0  0  0  0  0  0  0
  -39.9417   51.4611   64.9231 Si  0  0  0  0  0  0  0  0  0  0  0  0
  -41.7688   61.7583   59.3103 O   0  0  0  0  0  0  0  0  0  0  0  0
  -39.3487   52.6845   66.0838 O   0  0  0  0  0  0  0  0  0  0  0  0
  -39.9040   60.9321   60.5841 C   0  0  0  0  0  0  0  0  0  0  0  0
  -36.6309   56.1397   65.3564 N   0  0  0  0  0  0  0  0  0  0  0  0
  -34.3393   58.7437   64.6888 O   0  0  0  0  0  0  0  0  0  0  0  0
  -39.1167   59.6292   60.8329 C   0  0  0  0  0  0  0  0  0  0  0  0
  -36.8950   59.8150   64.6310 N   0  0  0  0  0  0  0  0  0  0  0  0
  -34.7681   55.4202   64.2945 O   0  0  0  0  0  0  0  0  0  0  0  0
  -37.9469   59.6864   61.8299 C   0  0  0  0  0  0  0  0  0  0  0  0
  -38.3437   53.5365   65.7371 N   0  0  0  0  0  0  0  0  0  0  0  0
  -36.2434   61.3596   63.0940 O   0  0  0  0  0  0  0  0  0  0  0  0
  -37.6390   58.4030   62.6110 C   0  0  0  0  0  0  0  0  0  0  0  0
  -35.4385   62.8987   65.3983 N   0  0  0  0  0  0  0  0  0  0  0  0
  -42.2241   59.3961   58.2203 O   0  0  0  0  0  0  0  0  0  0  0  0
  -36.7890   58.5530   63.8960 C   0  0  1  0  0  0  0  0  0  0  0  0
  -39.8533   55.1020   65.1578 O   0  0  0  0  0  0  0  0  0  0  0  0
  -35.3080   58.3090   63.6770 C   0  0  0  0  0  0  0  0  0  0  0  0
  -36.0098   62.4075   67.5017 O   0  0  0  0  0  0  0  0  0  0  0  0
  -33.5035   57.7973   65.3813 C   0  0  1  0  0  0  0  0  0  0  0  0
  -33.5375   62.3156   68.9656 O   0  0  0  0  0  0  0  0  0  0  0  0
  -34.4010   56.8108   66.1133 C   0  0  0  0  0  0  0  0  0  0  0  0
  -32.4989   57.0728   64.4939 C   0  0  0  0  0  0  0  0  0  0  0  0
  -35.3047   56.0322   65.1895 C   0  0  0  0  0  0  0  0  0  0  0  0
  -36.6335   61.0669   64.2166 C   0  0  0  0  0  0  0  0  0  0  0  0
  -40.4473   58.2286   59.3257 C   0  0  0  0  0  0  0  0  0  0  0  0
  -40.8769   56.9654   58.5672 C   0  0  0  0  0  0  0  0  0  0  0  0
  -42.3420   56.6223   58.8988 C   0  0  0  0  0  0  0  0  0  0  0  0
  -42.5911   56.3733   60.3985 C   0  0  0  0  0  0  0  0  0  0  0  0
  -42.2749   57.5744   61.3093 C   0  0  0  0  0  0  0  0  0  0  0  0
  -43.1281   58.8175   60.9811 C   0  0  0  0  0  0  0  0  0  0  0  0
  -44.6526   58.6084   61.1356 C   0  0  0  0  0  0  0  0  0  0  0  0
  -45.0753   58.2313   62.5602 C   0  0  0  0  0  0  0  0  0  0  0  0
  -44.7420   59.2670   63.6387 C   0  0  0  0  0  0  0  0  0  0  0  0
  -45.1893   58.7896   65.0324 C   0  0  0  0  0  0  0  0  0  0  0  0
  -44.8979   59.7939   66.1578 C   0  0  0  0  0  0  0  0  0  0  0  0
  -45.3109   59.3538   67.5661 C   0  0  0  0  0  0  0  0  0  0  0  0
  -46.8220   59.0490   67.7197 C   0  0  0  0  0  0  0  0  0  0  0  0
  -47.1701   58.6298   69.1624 C   0  0  0  0  0  0  0  0  0  0  0  0
  -48.6342   58.2811   69.4558 C   0  0  0  0  0  0  0  0  0  0  0  0
  -36.9691   53.1021   66.0262 C   0  0  0  0  0  0  0  0  0  0  0  0
  -36.2028   52.8141   64.7213 C   0  0  0  0  0  0  0  0  0  0  0  0
  -36.9287   53.2016   63.4436 C   0  0  0  0  0  0  0  0  0  0  0  0
  -37.0981   54.7151   63.2869 C   0  0  0  0  0  0  0  0  0  0  0  0
  -37.6340   55.5294   64.4763 C   0  0  1  0  0  0  0  0  0  0  0  0
  -38.6974   54.7014   65.1709 C   0  0  0  0  0  0  0  0  0  0  0  0
  -37.0673   61.8537   66.7197 C   0  0  0  0  0  0  0  0  0  0  0  0
  -35.0598   63.0083   66.5992 C   0  0  0  0  0  0  0  0  0  0  0  0
  -36.7218   62.1879   65.2420 C   0  0  1  0  0  0  0  0  0  0  0  0
  -33.1133   63.3276   68.1990 C   0  0  0  0  0  0  0  0  0  0  0  0
  -31.9424   64.0149   68.5447 C   0  0  0  0  0  0  0  0  0  0  0  0
  -31.4815   65.0867   67.7617 C   0  0  0  0  0  0  0  0  0  0  0  0
  -32.1808   65.4770   66.6184 C   0  0  0  0  0  0  0  0  0  0  0  0
  -33.3460   64.7904   66.2657 C   0  0  0  0  0  0  0  0  0  0  0  0
  -33.8152   63.7216   67.0532 C   0  0  0  0  0  0  0  0  0  0  0  0
  -40.9833   50.7051   65.5231 H   0  0  0  0  0  0  0  0  0  0  0  0
  -38.8758   50.5951   64.5622 H   0  0  0  0  0  0  0  0  0  0  0  0
  -40.4372   52.1112   63.7619 H   0  0  0  0  0  0  0  0  0  0  0  0
  -42.4517   61.4982   58.6724 H   0  0  0  0  0  0  0  0  0  0  0  0
  -40.3272   61.2803   61.5032 H   0  0  0  0  0  0  0  0  0  0  0  0
  -39.2530   61.6885   60.1982 H   0  0  0  0  0  0  0  0  0  0  0  0
  -36.9544   56.6650   66.1236 H   0  0  0  0  0  0  0  0  0  0  0  0
  -38.7205   59.3093   59.8918 H   0  0  0  0  0  0  0  0  0  0  0  0
  -39.8248   58.9638   61.2810 H   0  0  0  0  0  0  0  0  0  0  0  0
  -37.2021   59.7352   65.5630 H   0  0  0  0  0  0  0  0  0  0  0  0
  -37.3952   60.5477   61.9667 H   0  0  0  0  0  0  0  0  0  0  0  0
  -37.9824   57.4826   62.2948 H   0  0  0  0  0  0  0  0  0  0  0  0
  -37.2383   57.7881   64.4943 H   0  0  0  0  0  0  0  0  0  0  0  0
  -32.8989   58.3496   66.0700 H   0  0  0  0  0  0  0  0  0  0  0  0
  -33.0513   62.0696   69.7278 H   0  0  0  0  0  0  0  0  0  0  0  0
  -35.0091   57.3537   66.8063 H   0  0  0  0  0  0  0  0  0  0  0  0
  -33.7641   56.1053   66.6048 H   0  0  0  0  0  0  0  0  0  0  0  0
  -33.0222   56.4884   63.7662 H   0  0  0  0  0  0  0  0  0  0  0  0
  -31.8895   56.4311   65.0954 H   0  0  0  0  0  0  0  0  0  0  0  0
  -31.8796   57.7900   63.9970 H   0  0  0  0  0  0  0  0  0  0  0  0
  -40.5230   58.0308   60.3746 H   0  0  0  0  0  0  0  0  0  0  0  0
  -39.4477   58.4468   59.0126 H   0  0  0  0  0  0  0  0  0  0  0  0
  -40.2482   56.1487   58.8548 H   0  0  0  0  0  0  0  0  0  0  0  0
  -40.7872   57.1405   57.5155 H   0  0  0  0  0  0  0  0  0  0  0  0
  -42.6134   55.7391   58.3593 H   0  0  0  0  0  0  0  0  0  0  0  0
  -42.9344   57.4679   58.6178 H   0  0  0  0  0  0  0  0  0  0  0  0
  -41.9796   55.5510   60.7063 H   0  0  0  0  0  0  0  0  0  0  0  0
  -43.6382   56.1803   60.5040 H   0  0  0  0  0  0  0  0  0  0  0  0
  -41.2421   57.8286   61.1928 H   0  0  0  0  0  0  0  0  0  0  0  0
  -42.5026   57.2845   62.3138 H   0  0  0  0  0  0  0  0  0  0  0  0
  -42.9306   59.1004   59.9683 H   0  0  0  0  0  0  0  0  0  0  0  0
  -42.8514   59.5716   61.6880 H   0  0  0  0  0  0  0  0  0  0  0  0
  -44.9561   57.8248   60.4734 H   0  0  0  0  0  0  0  0  0  0  0  0
  -45.1240   59.5405   60.9031 H   0  0  0  0  0  0  0  0  0  0  0  0
  -44.5855   57.3158   62.8187 H   0  0  0  0  0  0  0  0  0  0  0  0
  -46.1425   58.1568   62.5418 H   0  0  0  0  0  0  0  0  0  0  0  0
  -45.2427   60.1840   63.4075 H   0  0  0  0  0  0  0  0  0  0  0  0
  -43.6814   59.4075   63.6549 H   0  0  0  0  0  0  0  0  0  0  0  0
  -44.6786   57.8762   65.2555 H   0  0  0  0  0  0  0  0  0  0  0  0
  -46.2515   58.6673   64.9927 H   0  0  0  0  0  0  0  0  0  0  0  0
  -45.4181   60.7011   65.9313 H   0  0  0  0  0  0  0  0  0  0  0  0
  -43.8334   59.8987   66.1860 H   0  0  0  0  0  0  0  0  0  0  0  0
  -45.0553   60.1357   68.2503 H   0  0  0  0  0  0  0  0  0  0  0  0
  -44.7915   58.4402   67.7670 H   0  0  0  0  0  0  0  0  0  0  0  0
  -47.0859   58.2544   67.0535 H   0  0  0  0  0  0  0  0  0  0  0  0
  -47.3693   59.9385   67.4872 H   0  0  0  0  0  0  0  0  0  0  0  0
  -46.8960   59.4382   69.8077 H   0  0  0  0  0  0  0  0  0  0  0  0
  -46.6317   57.7192   69.3230 H   0  0  0  0  0  0  0  0  0  0  0  0
  -49.2428   59.1499   69.3157 H   0  0  0  0  0  0  0  0  0  0  0  0
  -48.7243   57.9417   70.4666 H   0  0  0  0  0  0  0  0  0  0  0  0
  -48.9571   57.5083   68.7900 H   0  0  0  0  0  0  0  0  0  0  0  0
  -36.9995   52.2120   66.6193 H   0  0  0  0  0  0  0  0  0  0  0  0
  -36.4655   53.8840   66.5551 H   0  0  0  0  0  0  0  0  0  0  0  0
  -36.0007   51.7641   64.6814 H   0  0  0  0  0  0  0  0  0  0  0  0
  -35.3209   53.4190   64.7561 H   0  0  0  0  0  0  0  0  0  0  0  0
  -37.8982   52.7490   63.4516 H   0  0  0  0  0  0  0  0  0  0  0  0
  -36.3348   52.8594   62.6219 H   0  0  0  0  0  0  0  0  0  0  0  0
  -37.7706   54.8730   62.4697 H   0  0  0  0  0  0  0  0  0  0  0  0
  -36.0986   55.0745   63.1577 H   0  0  0  0  0  0  0  0  0  0  0  0
  -38.0813   56.4219   64.0913 H   0  0  0  0  0  0  0  0  0  0  0  0
  -38.0030   62.2954   66.9925 H   0  0  0  0  0  0  0  0  0  0  0  0
  -37.1597   60.7989   66.8734 H   0  0  0  0  0  0  0  0  0  0  0  0
  -37.5333   62.7285   64.8014 H   0  0  0  0  0  0  0  0  0  0  0  0
  -31.4127   63.7309   69.3836 H   0  0  0  0  0  0  0  0  0  0  0  0
  -30.6213   65.5881   68.0334 H   0  0  0  0  0  0  0  0  0  0  0  0
  -31.8419   66.2623   66.0410 H   0  0  0  0  0  0  0  0  0  0  0  0
  -33.8675   65.0695   65.4200 H   0  0  0  0  0  0  0  0  0  0  0  0
  1  2  1  0  0  0  0
  1  5  1  0  0  0  0
  1  7  1  0  0  0  0
  2 18  2  0  0  0  0
  2 29  1  0  0  0  0
  3 21  2  0  0  0  0
  4  6  1  0  0  0  0
  4 59  1  0  0  0  0
  4 60  1  0  0  0  0
  4 61  1  0  0  0  0
  5 62  1  0  0  0  0
  6 14  1  0  0  0  0
  7 10  1  0  0  0  0
  7 63  1  0  0  0  0
  7 64  1  0  0  0  0
  8 27  1  0  0  0  0
  8 48  1  0  0  0  0
  8 65  1  0  0  0  0
  9 21  1  0  0  0  0
  9 23  1  0  0  0  0
 10 13  1  0  0  0  0
 10 66  1  0  0  0  0
 10 67  1  0  0  0  0
 11 19  1  0  0  0  0
 11 28  1  0  0  0  0
 11 68  1  0  0  0  0
 12 27  2  0  0  0  0
 13 16  2  0  0  0  0
 13 69  1  0  0  0  0
 14 44  1  0  0  0  0
 14 49  1  0  0  0  0
 15 28  2  0  0  0  0
 16 19  1  0  0  0  0
 16 70  1  0  0  0  0
 17 51  2  0  0  0  0
 17 52  1  0  0  0  0
 19 21  1  0  0  0  0
 19 71  1  1  0  0  0
 20 49  2  0  0  0  0
 22 50  1  0  0  0  0
 22 51  1  0  0  0  0
 23 25  1  0  0  0  0
 23 26  1  0  0  0  0
 23 72  1  1  0  0  0
 24 53  1  0  0  0  0
 24 73  1  0  0  0  0
 25 27  1  0  0  0  0
 25 74  1  0  0  0  0
 25 75  1  0  0  0  0
 26 76  1  0  0  0  0
 26 77  1  0  0  0  0
 26 78  1  0  0  0  0
 28 52  1  0  0  0  0
 29 30  1  0  0  0  0
 29 79  1  0  0  0  0
 29 80  1  0  0  0  0
 30 31  1  0  0  0  0
 30 81  1  0  0  0  0
 30 82  1  0  0  0  0
 31 32  1  0  0  0  0
 31 83  1  0  0  0  0
 31 84  1  0  0  0  0
 32 33  1  0  0  0  0
 32 85  1  0  0  0  0
 32 86  1  0  0  0  0
 33 34  1  0  0  0  0
 33 87  1  0  0  0  0
 33 88  1  0  0  0  0
 34 35  1  0  0  0  0
 34 89  1  0  0  0  0
 34 90  1  0  0  0  0
 35 36  1  0  0  0  0
 35 91  1  0  0  0  0
 35 92  1  0  0  0  0
 36 37  1  0  0  0  0
 36 93  1  0  0  0  0
 36 94  1  0  0  0  0
 37 38  1  0  0  0  0
 37 95  1  0  0  0  0
 37 96  1  0  0  0  0
 38 39  1  0  0  0  0
 38 97  1  0  0  0  0
 38 98  1  0  0  0  0
 39 40  1  0  0  0  0
 39 99  1  0  0  0  0
 39100  1  0  0  0  0
 40 41  1  0  0  0  0
 40101  1  0  0  0  0
 40102  1  0  0  0  0
 41 42  1  0  0  0  0
 41103  1  0  0  0  0
 41104  1  0  0  0  0
 42 43  1  0  0  0  0
 42105  1  0  0  0  0
 42106  1  0  0  0  0
 43107  1  0  0  0  0
 43108  1  0  0  0  0
 43109  1  0  0  0  0
 44 45  1  0  0  0  0
 44110  1  0  0  0  0
 44111  1  0  0  0  0
 45 46  1  0  0  0  0
 45112  1  0  0  0  0
 45113  1  0  0  0  0
 46 47  1  0  0  0  0
 46114  1  0  0  0  0
 46115  1  0  0  0  0
 47 48  1  0  0  0  0
 47116  1  0  0  0  0
 47117  1  0  0  0  0
 48 49  1  0  0  0  0
 48118  1  6  0  0  0
 50 52  1  0  0  0  0
 50119  1  0  0  0  0
 50120  1  0  0  0  0
 51 58  1  0  0  0  0
 52121  1  6  0  0  0
 53 54  2  0  0  0  0
 53 58  1  0  0  0  0
 54 55  1  0  0  0  0
 54122  1  0  0  0  0
 55 56  2  0  0  0  0
 55123  1  0  0  0  0
 56 57  1  0  0  0  0
 56124  1  0  0  0  0
 57 58  2  0  0  0  0
 57125  1  0  0  0  0
M  END
$$$$