/media/chris/experiments/cd1a-new-docking/inputs/ligands/1xz0_ligand.pdb
 OpenBabel07022319323D

125127  0  0  1  0  0  0  0  0999 V2000
  -37.9367   56.8563   59.1870 N   0  0  0  0  0  0  0  0  0  0  0  0
  -37.0687   55.8154   59.0824 C   0  0  0  0  0  0  0  0  0  0  0  0
  -34.6103   59.1028   63.0674 O   0  0  0  0  0  0  0  0  0  0  0  0
  -31.1450   61.0455   56.9605 Si  0  0  0  0  0  0  0  0  0  0  0  0
  -39.2110   56.5747   59.6992 O   0  0  0  0  0  0  0  0  0  0  0  0
  -32.4733   60.7024   58.1067 O   0  0  0  0  0  0  0  0  0  0  0  0
  -37.7348   58.2656   58.8364 C   0  0  0  0  0  0  0  0  0  0  0  0
  -32.5243   59.0166   62.2308 N   0  0  0  0  0  0  0  0  0  0  0  0
  -34.6971   57.0605   64.1450 O   0  0  0  0  0  0  0  0  0  0  0  0
  -37.9322   59.1139   60.1095 C   0  0  0  0  0  0  0  0  0  0  0  0
  -36.8950   59.8150   64.6310 N   0  0  0  0  0  0  0  0  0  0  0  0
  -32.2850   59.4068   64.4457 O   0  0  0  0  0  0  0  0  0  0  0  0
  -36.9889   58.8455   61.2943 C   0  0  0  0  0  0  0  0  0  0  0  0
  -32.2024   60.2608   59.3667 N   0  0  0  0  0  0  0  0  0  0  0  0
  -36.8820   61.1456   66.4755 O   0  0  0  0  0  0  0  0  0  0  0  0
  -37.6390   58.4030   62.6110 C   0  0  0  0  0  0  0  0  0  0  0  0
  -35.5537   59.3463   68.0045 N   0  0  0  0  0  0  0  0  0  0  0  0
  -37.3935   54.6784   59.4240 O   0  0  0  0  0  0  0  0  0  0  0  0
  -36.7890   58.5530   63.8960 C   0  0  1  0  0  0  0  0  0  0  0  0
  -34.1858   61.0476   60.0827 O   0  0  0  0  0  0  0  0  0  0  0  0
  -35.3080   58.3090   63.6770 C   0  0  0  0  0  0  0  0  0  0  0  0
  -34.2666   57.7383   67.1386 O   0  0  0  0  0  0  0  0  0  0  0  0
  -33.6005   56.4517   63.4374 C   0  0  1  0  0  0  0  0  0  0  0  0
  -34.8387   60.6757   70.2801 O   0  0  0  0  0  0  0  0  0  0  0  0
  -32.3188   57.1721   63.8282 C   0  0  0  0  0  0  0  0  0  0  0  0
  -33.4709   54.9478   63.6449 C   0  0  0  0  0  0  0  0  0  0  0  0
  -32.3448   58.6461   63.5070 C   0  0  0  0  0  0  0  0  0  0  0  0
  -36.7626   60.0473   65.9485 C   0  0  0  0  0  0  0  0  0  0  0  0
  -35.6617   56.0751   58.5338 C   0  0  0  0  0  0  0  0  0  0  0  0
  -35.5346   55.9223   57.0120 C   0  0  0  0  0  0  0  0  0  0  0  0
  -34.0813   56.1874   56.5738 C   0  0  0  0  0  0  0  0  0  0  0  0
  -33.0634   55.2144   57.1984 C   0  0  0  0  0  0  0  0  0  0  0  0
  -33.2936   53.7326   56.8470 C   0  0  0  0  0  0  0  0  0  0  0  0
  -33.2080   53.4548   55.3316 C   0  0  0  0  0  0  0  0  0  0  0  0
  -33.4506   51.9799   54.9348 C   0  0  0  0  0  0  0  0  0  0  0  0
  -34.8380   51.4619   55.3313 C   0  0  0  0  0  0  0  0  0  0  0  0
  -36.0200   52.2044   54.7001 C   0  0  0  0  0  0  0  0  0  0  0  0
  -37.3649   51.6226   55.1725 C   0  0  0  0  0  0  0  0  0  0  0  0
  -37.5507   50.1344   54.8399 C   0  0  0  0  0  0  0  0  0  0  0  0
  -38.8829   49.5161   55.2765 C   0  0  0  0  0  0  0  0  0  0  0  0
  -40.1299   50.1727   54.6336 C   0  0  0  0  0  0  0  0  0  0  0  0
  -41.4337   49.5148   55.1291 C   0  0  0  0  0  0  0  0  0  0  0  0
  -41.6030   48.0133   54.8679 C   0  0  0  0  0  0  0  0  0  0  0  0
  -30.9777   59.4679   59.5486 C   0  0  0  0  0  0  0  0  0  0  0  0
  -29.9396   60.2502   60.3751 C   0  0  0  0  0  0  0  0  0  0  0  0
  -30.4373   61.5553   60.9741 C   0  0  0  0  0  0  0  0  0  0  0  0
  -31.4958   61.3498   62.0609 C   0  0  0  0  0  0  0  0  0  0  0  0
  -32.6756   60.4045   61.7793 C   0  0  1  0  0  0  0  0  0  0  0  0
  -33.0822   60.5806   60.3293 C   0  0  0  0  0  0  0  0  0  0  0  0
  -35.3893   57.7911   66.2593 C   0  0  0  0  0  0  0  0  0  0  0  0
  -34.4570   58.7375   68.1601 C   0  0  0  0  0  0  0  0  0  0  0  0
  -36.3268   58.8890   66.8341 C   0  0  1  0  0  0  0  0  0  0  0  0
  -33.7411   59.9097   70.2962 C   0  0  0  0  0  0  0  0  0  0  0  0
  -32.8149   60.0484   71.3383 C   0  0  0  0  0  0  0  0  0  0  0  0
  -31.6504   59.2628   71.3730 C   0  0  0  0  0  0  0  0  0  0  0  0
  -31.4038   58.3226   70.3711 C   0  0  0  0  0  0  0  0  0  0  0  0
  -32.3278   58.1760   69.3327 C   0  0  0  0  0  0  0  0  0  0  0  0
  -33.4913   58.9679   69.2906 C   0  0  0  0  0  0  0  0  0  0  0  0
  -31.6882   61.4887   55.7255 H   0  0  0  0  0  0  0  0  0  0  0  0
  -30.3868   59.8640   56.7473 H   0  0  0  0  0  0  0  0  0  0  0  0
  -30.3051   62.0564   57.4981 H   0  0  0  0  0  0  0  0  0  0  0  0
  -39.2738   55.6296   59.9083 H   0  0  0  0  0  0  0  0  0  0  0  0
  -38.4457   58.5588   58.0923 H   0  0  0  0  0  0  0  0  0  0  0  0
  -36.7495   58.4110   58.4454 H   0  0  0  0  0  0  0  0  0  0  0  0
  -32.5568   58.3074   61.5487 H   0  0  0  0  0  0  0  0  0  0  0  0
  -38.9324   58.9496   60.4524 H   0  0  0  0  0  0  0  0  0  0  0  0
  -37.7114   60.1161   59.8066 H   0  0  0  0  0  0  0  0  0  0  0  0
  -37.0915   60.6076   64.0811 H   0  0  0  0  0  0  0  0  0  0  0  0
  -35.9667   58.9578   61.2074 H   0  0  0  0  0  0  0  0  0  0  0  0
  -38.5981   58.0231   62.6390 H   0  0  0  0  0  0  0  0  0  0  0  0
  -37.2383   57.7881   64.4943 H   0  0  0  0  0  0  0  0  0  0  0  0
  -33.7969   56.5590   62.3911 H   0  0  0  0  0  0  0  0  0  0  0  0
  -34.9848   61.2994   70.9639 H   0  0  0  0  0  0  0  0  0  0  0  0
  -31.5024   56.7236   63.3017 H   0  0  0  0  0  0  0  0  0  0  0  0
  -32.2122   57.0792   64.8888 H   0  0  0  0  0  0  0  0  0  0  0  0
  -33.2714   54.7459   64.6765 H   0  0  0  0  0  0  0  0  0  0  0  0
  -32.6671   54.5731   63.0462 H   0  0  0  0  0  0  0  0  0  0  0  0
  -34.3833   54.4682   63.3576 H   0  0  0  0  0  0  0  0  0  0  0  0
  -34.9895   55.3831   58.9966 H   0  0  0  0  0  0  0  0  0  0  0  0
  -35.4309   57.0955   58.7579 H   0  0  0  0  0  0  0  0  0  0  0  0
  -36.1832   56.6238   56.5303 H   0  0  0  0  0  0  0  0  0  0  0  0
  -35.8078   54.9254   56.7357 H   0  0  0  0  0  0  0  0  0  0  0  0
  -33.8175   57.1838   56.8609 H   0  0  0  0  0  0  0  0  0  0  0  0
  -34.0418   56.0463   55.5138 H   0  0  0  0  0  0  0  0  0  0  0  0
  -33.1134   55.3167   58.2623 H   0  0  0  0  0  0  0  0  0  0  0  0
  -32.1072   55.4764   56.7959 H   0  0  0  0  0  0  0  0  0  0  0  0
  -34.2652   53.4468   57.1923 H   0  0  0  0  0  0  0  0  0  0  0  0
  -32.5199   53.1660   57.3217 H   0  0  0  0  0  0  0  0  0  0  0  0
  -32.2317   53.7351   54.9951 H   0  0  0  0  0  0  0  0  0  0  0  0
  -33.9886   54.0254   54.8732 H   0  0  0  0  0  0  0  0  0  0  0  0
  -32.7121   51.3735   55.4162 H   0  0  0  0  0  0  0  0  0  0  0  0
  -33.3867   51.9256   53.8681 H   0  0  0  0  0  0  0  0  0  0  0  0
  -34.9284   51.5402   56.3946 H   0  0  0  0  0  0  0  0  0  0  0  0
  -34.8928   50.4567   54.9688 H   0  0  0  0  0  0  0  0  0  0  0  0
  -35.9576   52.1172   53.6355 H   0  0  0  0  0  0  0  0  0  0  0  0
  -35.9726   53.2304   55.0001 H   0  0  0  0  0  0  0  0  0  0  0  0
  -38.1535   52.1735   54.7038 H   0  0  0  0  0  0  0  0  0  0  0  0
  -37.3823   51.7070   56.2390 H   0  0  0  0  0  0  0  0  0  0  0  0
  -36.7634   49.5901   55.3183 H   0  0  0  0  0  0  0  0  0  0  0  0
  -37.5364   50.0708   53.7719 H   0  0  0  0  0  0  0  0  0  0  0  0
  -38.9643   49.6107   56.3392 H   0  0  0  0  0  0  0  0  0  0  0  0
  -38.8699   48.4971   54.9503 H   0  0  0  0  0  0  0  0  0  0  0  0
  -40.0694   50.0672   53.5705 H   0  0  0  0  0  0  0  0  0  0  0  0
  -40.1475   51.2053   54.9135 H   0  0  0  0  0  0  0  0  0  0  0  0
  -42.2494   50.0183   54.6537 H   0  0  0  0  0  0  0  0  0  0  0  0
  -41.4027   49.6081   56.1945 H   0  0  0  0  0  0  0  0  0  0  0  0
  -41.6429   47.8370   53.8133 H   0  0  0  0  0  0  0  0  0  0  0  0
  -42.5104   47.6725   55.3211 H   0  0  0  0  0  0  0  0  0  0  0  0
  -40.7738   47.4826   55.2870 H   0  0  0  0  0  0  0  0  0  0  0  0
  -30.5623   59.2384   58.5896 H   0  0  0  0  0  0  0  0  0  0  0  0
  -31.2255   58.5677   60.0712 H   0  0  0  0  0  0  0  0  0  0  0  0
  -29.1100   60.4741   59.7374 H   0  0  0  0  0  0  0  0  0  0  0  0
  -29.6860   59.6219   61.2032 H   0  0  0  0  0  0  0  0  0  0  0  0
  -30.8625   62.1491   60.1920 H   0  0  0  0  0  0  0  0  0  0  0  0
  -29.5988   62.0378   61.4313 H   0  0  0  0  0  0  0  0  0  0  0  0
  -31.9096   62.3114   62.2822 H   0  0  0  0  0  0  0  0  0  0  0  0
  -30.9620   60.8672   62.8528 H   0  0  0  0  0  0  0  0  0  0  0  0
  -33.4902   60.6955   62.4090 H   0  0  0  0  0  0  0  0  0  0  0  0
  -35.8910   56.8463   66.2386 H   0  0  0  0  0  0  0  0  0  0  0  0
  -35.0928   58.0129   65.2554 H   0  0  0  0  0  0  0  0  0  0  0  0
  -37.2941   58.4696   67.0166 H   0  0  0  0  0  0  0  0  0  0  0  0
  -32.9899   60.7349   72.0887 H   0  0  0  0  0  0  0  0  0  0  0  0
  -30.9739   59.3816   72.1432 H   0  0  0  0  0  0  0  0  0  0  0  0
  -30.5502   57.7431   70.3968 H   0  0  0  0  0  0  0  0  0  0  0  0
  -32.1556   57.4808   68.5898 H   0  0  0  0  0  0  0  0  0  0  0  0
  1  2  1  0  0  0  0
  1  5  1  0  0  0  0
  1  7  1  0  0  0  0
  2 18  2  0  0  0  0
  2 29  1  0  0  0  0
  3 21  2  0  0  0  0
  4  6  1  0  0  0  0
  4 59  1  0  0  0  0
  4 60  1  0  0  0  0
  4 61  1  0  0  0  0
  5 62  1  0  0  0  0
  6 14  1  0  0  0  0
  7 10  1  0  0  0  0
  7 63  1  0  0  0  0
  7 64  1  0  0  0  0
  8 27  1  0  0  0  0
  8 48  1  0  0  0  0
  8 65  1  0  0  0  0
  9 21  1  0  0  0  0
  9 23  1  0  0  0  0
 10 13  1  0  0  0  0
 10 66  1  0  0  0  0
 10 67  1  0  0  0  0
 11 19  1  0  0  0  0
 11 28  1  0  0  0  0
 11 68  1  0  0  0  0
 12 27  2  0  0  0  0
 13 16  2  0  0  0  0
 13 69  1  0  0  0  0
 14 44  1  0  0  0  0
 14 49  1  0  0  0  0
 15 28  2  0  0  0  0
 16 19  1  0  0  0  0
 16 70  1  0  0  0  0
 17 51  2  0  0  0  0
 17 52  1  0  0  0  0
 19 21  1  0  0  0  0
 19 71  1  1  0  0  0
 20 49  2  0  0  0  0
 22 50  1  0  0  0  0
 22 51  1  0  0  0  0
 23 25  1  0  0  0  0
 23 26  1  0  0  0  0
 23 72  1  6  0  0  0
 24 53  1  0  0  0  0
 24 73  1  0  0  0  0
 25 27  1  0  0  0  0
 25 74  1  0  0  0  0
 25 75  1  0  0  0  0
 26 76  1  0  0  0  0
 26 77  1  0  0  0  0
 26 78  1  0  0  0  0
 28 52  1  0  0  0  0
 29 30  1  0  0  0  0
 29 79  1  0  0  0  0
 29 80  1  0  0  0  0
 30 31  1  0  0  0  0
 30 81  1  0  0  0  0
 30 82  1  0  0  0  0
 31 32  1  0  0  0  0
 31 83  1  0  0  0  0
 31 84  1  0  0  0  0
 32 33  1  0  0  0  0
 32 85  1  0  0  0  0
 32 86  1  0  0  0  0
 33 34  1  0  0  0  0
 33 87  1  0  0  0  0
 33 88  1  0  0  0  0
 34 35  1  0  0  0  0
 34 89  1  0  0  0  0
 34 90  1  0  0  0  0
 35 36  1  0  0  0  0
 35 91  1  0  0  0  0
 35 92  1  0  0  0  0
 36 37  1  0  0  0  0
 36 93  1  0  0  0  0
 36 94  1  0  0  0  0
 37 38  1  0  0  0  0
 37 95  1  0  0  0  0
 37 96  1  0  0  0  0
 38 39  1  0  0  0  0
 38 97  1  0  0  0  0
 38 98  1  0  0  0  0
 39 40  1  0  0  0  0
 39 99  1  0  0  0  0
 39100  1  0  0  0  0
 40 41  1  0  0  0  0
 40101  1  0  0  0  0
 40102  1  0  0  0  0
 41 42  1  0  0  0  0
 41103  1  0  0  0  0
 41104  1  0  0  0  0
 42 43  1  0  0  0  0
 42105  1  0  0  0  0
 42106  1  0  0  0  0
 43107  1  0  0  0  0
 43108  1  0  0  0  0
 43109  1  0  0  0  0
 44 45  1  0  0  0  0
 44110  1  0  0  0  0
 44111  1  0  0  0  0
 45 46  1  0  0  0  0
 45112  1  0  0  0  0
 45113  1  0  0  0  0
 46 47  1  0  0  0  0
 46114  1  0  0  0  0
 46115  1  0  0  0  0
 47 48  1  0  0  0  0
 47116  1  0  0  0  0
 47117  1  0  0  0  0
 48 49  1  0  0  0  0
 48118  1  1  0  0  0
 50 52  1  0  0  0  0
 50119  1  0  0  0  0
 50120  1  0  0  0  0
 51 58  1  0  0  0  0
 52121  1  1  0  0  0
 53 54  2  0  0  0  0
 53 58  1  0  0  0  0
 54 55  1  0  0  0  0
 54122  1  0  0  0  0
 55 56  2  0  0  0  0
 55123  1  0  0  0  0
 56 57  1  0  0  0  0
 56124  1  0  0  0  0
 57 58  2  0  0  0  0
 57125  1  0  0  0  0
M  END
$$$$