/media/chris/experiments/cd1a-new-docking/inputs/ligands/1xz0_ligand.pdb
 OpenBabel07022319323D

125127  0  0  1  0  0  0  0  0999 V2000
  -41.0277   60.8896   61.1435 N   0  0  0  0  0  0  0  0  0  0  0  0
  -40.6352   62.1907   61.1129 C   0  0  0  0  0  0  0  0  0  0  0  0
  -34.9015   57.3291   63.0745 O   0  0  0  0  0  0  0  0  0  0  0  0
  -26.6969   55.2672   66.8412 Si  0  0  0  0  0  0  0  0  0  0  0  0
  -42.1444   60.5791   61.9323 O   0  0  0  0  0  0  0  0  0  0  0  0
  -26.3227   56.7548   65.9232 O   0  0  0  0  0  0  0  0  0  0  0  0
  -40.4442   59.7327   60.4573 C   0  0  0  0  0  0  0  0  0  0  0  0
  -29.8056   58.9877   64.2689 N   0  0  0  0  0  0  0  0  0  0  0  0
  -34.3234   59.2293   64.2555 O   0  0  0  0  0  0  0  0  0  0  0  0
  -39.9996   58.7111   61.5241 C   0  0  0  0  0  0  0  0  0  0  0  0
  -36.8950   59.8150   64.6310 N   0  0  0  0  0  0  0  0  0  0  0  0
  -30.5156   57.7390   62.5219 O   0  0  0  0  0  0  0  0  0  0  0  0
  -38.9635   59.1745   62.5621 C   0  0  0  0  0  0  0  0  0  0  0  0
  -27.3084   57.6432   65.6147 N   0  0  0  0  0  0  0  0  0  0  0  0
  -37.3723   61.3220   62.9958 O   0  0  0  0  0  0  0  0  0  0  0  0
  -37.6390   58.4030   62.6110 C   0  0  0  0  0  0  0  0  0  0  0  0
  -36.1202   61.9582   66.2359 N   0  0  0  0  0  0  0  0  0  0  0  0
  -41.2379   63.0531   61.7516 O   0  0  0  0  0  0  0  0  0  0  0  0
  -36.7890   58.5530   63.8960 C   0  0  1  0  0  0  0  0  0  0  0  0
  -27.0713   57.1667   63.4279 O   0  0  0  0  0  0  0  0  0  0  0  0
  -35.3080   58.3090   63.6770 C   0  0  0  0  0  0  0  0  0  0  0  0
  -37.9668   62.5543   67.3434 O   0  0  0  0  0  0  0  0  0  0  0  0
  -33.0235   59.4060   63.6615 C   0  0  1  0  0  0  0  0  0  0  0  0
  -33.7378   62.6006   67.6426 O   0  0  0  0  0  0  0  0  0  0  0  0
  -32.1350   58.2518   64.1003 C   0  0  0  0  0  0  0  0  0  0  0  0
  -33.0350   59.5450   62.1442 C   0  0  0  0  0  0  0  0  0  0  0  0
  -30.7331   58.3392   63.5495 C   0  0  0  0  0  0  0  0  0  0  0  0
  -37.1633   61.0492   64.1705 C   0  0  0  0  0  0  0  0  0  0  0  0
  -39.4234   62.5800   60.2597 C   0  0  0  0  0  0  0  0  0  0  0  0
  -39.4757   64.0059   59.6945 C   0  0  0  0  0  0  0  0  0  0  0  0
  -38.2221   64.2831   58.8425 C   0  0  0  0  0  0  0  0  0  0  0  0
  -38.1842   65.7038   58.2481 C   0  0  0  0  0  0  0  0  0  0  0  0
  -38.1823   66.8360   59.2921 C   0  0  0  0  0  0  0  0  0  0  0  0
  -36.9606   66.7825   60.2332 C   0  0  0  0  0  0  0  0  0  0  0  0
  -36.8330   65.4726   61.0453 C   0  0  0  0  0  0  0  0  0  0  0  0
  -35.6213   65.4526   61.9843 C   0  0  0  0  0  0  0  0  0  0  0  0
  -34.2601   65.6198   61.3015 C   0  0  0  0  0  0  0  0  0  0  0  0
  -34.0105   64.5068   60.2675 C   0  0  0  0  0  0  0  0  0  0  0  0
  -32.6515   64.6088   59.5586 C   0  0  0  0  0  0  0  0  0  0  0  0
  -32.3662   63.5308   58.5078 C   0  0  0  0  0  0  0  0  0  0  0  0
  -32.3923   62.0831   59.0585 C   0  0  0  0  0  0  0  0  0  0  0  0
  -33.7734   61.7264   59.6447 C   0  0  0  0  0  0  0  0  0  0  0  0
  -34.9725   61.7753   58.6903 C   0  0  0  0  0  0  0  0  0  0  0  0
  -28.0269   58.2619   66.7385 C   0  0  0  0  0  0  0  0  0  0  0  0
  -27.6959   59.7630   66.8368 C   0  0  0  0  0  0  0  0  0  0  0  0
  -26.8753   60.3232   65.6867 C   0  0  0  0  0  0  0  0  0  0  0  0
  -27.6375   60.3374   64.3590 C   0  0  0  0  0  0  0  0  0  0  0  0
  -28.3832   59.0672   63.9171 C   0  0  1  0  0  0  0  0  0  0  0  0
  -27.5432   57.8684   64.3120 C   0  0  0  0  0  0  0  0  0  0  0  0
  -38.3591   62.5977   65.9720 C   0  0  0  0  0  0  0  0  0  0  0  0
  -36.5878   62.1379   67.3963 C   0  0  0  0  0  0  0  0  0  0  0  0
  -37.0953   62.2061   65.1569 C   0  0  1  0  0  0  0  0  0  0  0  0
  -34.4318   62.2544   68.7336 C   0  0  0  0  0  0  0  0  0  0  0  0
  -33.7742   62.1397   69.9654 C   0  0  0  0  0  0  0  0  0  0  0  0
  -34.4784   61.7686   71.1233 C   0  0  0  0  0  0  0  0  0  0  0  0
  -35.8504   61.5176   71.0644 C   0  0  0  0  0  0  0  0  0  0  0  0
  -36.5122   61.6368   69.8391 C   0  0  0  0  0  0  0  0  0  0  0  0
  -35.8075   62.0000   68.6754 C   0  0  0  0  0  0  0  0  0  0  0  0
  -25.5068   54.5162   67.0312 H   0  0  0  0  0  0  0  0  0  0  0  0
  -27.6376   54.4881   66.1171 H   0  0  0  0  0  0  0  0  0  0  0  0
  -27.2435   55.6155   68.1047 H   0  0  0  0  0  0  0  0  0  0  0  0
  -42.4770   61.3868   62.3542 H   0  0  0  0  0  0  0  0  0  0  0  0
  -39.5991   60.0433   59.8792 H   0  0  0  0  0  0  0  0  0  0  0  0
  -41.1648   59.2910   59.8012 H   0  0  0  0  0  0  0  0  0  0  0  0
  -30.0997   59.4425   65.0910 H   0  0  0  0  0  0  0  0  0  0  0  0
  -39.5837   57.8704   61.0092 H   0  0  0  0  0  0  0  0  0  0  0  0
  -40.8832   58.5080   62.0924 H   0  0  0  0  0  0  0  0  0  0  0  0
  -36.7487   59.7503   65.6024 H   0  0  0  0  0  0  0  0  0  0  0  0
  -39.1508   59.9672   63.1958 H   0  0  0  0  0  0  0  0  0  0  0  0
  -37.3289   57.8116   61.8242 H   0  0  0  0  0  0  0  0  0  0  0  0
  -37.2383   57.7881   64.4943 H   0  0  0  0  0  0  0  0  0  0  0  0
  -32.6376   60.3411   64.0105 H   0  0  0  0  0  0  0  0  0  0  0  0
  -32.8177   62.7660   67.7057 H   0  0  0  0  0  0  0  0  0  0  0  0
  -32.5759   57.3364   63.7647 H   0  0  0  0  0  0  0  0  0  0  0  0
  -32.0611   58.2945   65.1669 H   0  0  0  0  0  0  0  0  0  0  0  0
  -33.4113   58.6441   61.7064 H   0  0  0  0  0  0  0  0  0  0  0  0
  -32.0394   59.7226   61.7948 H   0  0  0  0  0  0  0  0  0  0  0  0
  -33.6624   60.3658   61.8660 H   0  0  0  0  0  0  0  0  0  0  0  0
  -39.3594   61.8970   59.4385 H   0  0  0  0  0  0  0  0  0  0  0  0
  -38.5708   62.5390   60.9049 H   0  0  0  0  0  0  0  0  0  0  0  0
  -39.5162   64.7059   60.5028 H   0  0  0  0  0  0  0  0  0  0  0  0
  -40.3462   64.1082   59.0809 H   0  0  0  0  0  0  0  0  0  0  0  0
  -38.1972   63.5785   58.0376 H   0  0  0  0  0  0  0  0  0  0  0  0
  -37.3751   64.1903   59.4897 H   0  0  0  0  0  0  0  0  0  0  0  0
  -39.0442   65.8272   57.6235 H   0  0  0  0  0  0  0  0  0  0  0  0
  -37.2614   65.7838   57.7124 H   0  0  0  0  0  0  0  0  0  0  0  0
  -39.0715   66.7579   59.8821 H   0  0  0  0  0  0  0  0  0  0  0  0
  -38.1376   67.7633   58.7602 H   0  0  0  0  0  0  0  0  0  0  0  0
  -37.0341   67.5973   60.9229 H   0  0  0  0  0  0  0  0  0  0  0  0
  -36.0932   66.8392   59.6092 H   0  0  0  0  0  0  0  0  0  0  0  0
  -36.7440   64.6560   60.3597 H   0  0  0  0  0  0  0  0  0  0  0  0
  -37.7074   65.3943   61.6571 H   0  0  0  0  0  0  0  0  0  0  0  0
  -35.6190   64.5155   62.5008 H   0  0  0  0  0  0  0  0  0  0  0  0
  -35.7339   66.2983   62.6300 H   0  0  0  0  0  0  0  0  0  0  0  0
  -33.4910   65.5836   62.0446 H   0  0  0  0  0  0  0  0  0  0  0  0
  -34.2517   66.5609   60.7924 H   0  0  0  0  0  0  0  0  0  0  0  0
  -34.7813   64.5561   59.5269 H   0  0  0  0  0  0  0  0  0  0  0  0
  -34.0131   63.5799   60.8021 H   0  0  0  0  0  0  0  0  0  0  0  0
  -31.8867   64.5509   60.3047 H   0  0  0  0  0  0  0  0  0  0  0  0
  -32.6698   65.5368   59.0262 H   0  0  0  0  0  0  0  0  0  0  0  0
  -31.3970   63.7146   58.0934 H   0  0  0  0  0  0  0  0  0  0  0  0
  -33.1480   63.5967   57.7803 H   0  0  0  0  0  0  0  0  0  0  0  0
  -31.6537   61.9901   59.8271 H   0  0  0  0  0  0  0  0  0  0  0  0
  -32.1873   61.4127   58.2501 H   0  0  0  0  0  0  0  0  0  0  0  0
  -33.9701   62.4096   60.4443 H   0  0  0  0  0  0  0  0  0  0  0  0
  -33.6933   60.6997   59.9352 H   0  0  0  0  0  0  0  0  0  0  0  0
  -35.1188   62.7800   58.3525 H   0  0  0  0  0  0  0  0  0  0  0  0
  -35.8500   61.4399   59.2026 H   0  0  0  0  0  0  0  0  0  0  0  0
  -34.7856   61.1401   57.8498 H   0  0  0  0  0  0  0  0  0  0  0  0
  -27.7385   57.7784   67.6485 H   0  0  0  0  0  0  0  0  0  0  0  0
  -29.0788   58.1517   66.5765 H   0  0  0  0  0  0  0  0  0  0  0  0
  -27.1482   59.9223   67.7421 H   0  0  0  0  0  0  0  0  0  0  0  0
  -28.6346   60.2758   66.8082 H   0  0  0  0  0  0  0  0  0  0  0  0
  -25.9978   59.7222   65.5696 H   0  0  0  0  0  0  0  0  0  0  0  0
  -26.6357   61.3375   65.9289 H   0  0  0  0  0  0  0  0  0  0  0  0
  -26.9279   60.5680   63.5920 H   0  0  0  0  0  0  0  0  0  0  0  0
  -28.4175   61.0526   64.5170 H   0  0  0  0  0  0  0  0  0  0  0  0
  -28.4775   59.0928   62.8516 H   0  0  0  0  0  0  0  0  0  0  0  0
  -38.6821   63.5830   65.7079 H   0  0  0  0  0  0  0  0  0  0  0  0
  -39.1755   61.9348   65.7750 H   0  0  0  0  0  0  0  0  0  0  0  0
  -36.8688   62.9840   64.4580 H   0  0  0  0  0  0  0  0  0  0  0  0
  -32.7616   62.3299   70.0230 H   0  0  0  0  0  0  0  0  0  0  0  0
  -33.9788   61.6811   72.0220 H   0  0  0  0  0  0  0  0  0  0  0  0
  -36.3693   61.2475   71.9146 H   0  0  0  0  0  0  0  0  0  0  0  0
  -37.5270   61.4569   69.7868 H   0  0  0  0  0  0  0  0  0  0  0  0
  1  2  1  0  0  0  0
  1  5  1  0  0  0  0
  1  7  1  0  0  0  0
  2 18  2  0  0  0  0
  2 29  1  0  0  0  0
  3 21  2  0  0  0  0
  4  6  1  0  0  0  0
  4 59  1  0  0  0  0
  4 60  1  0  0  0  0
  4 61  1  0  0  0  0
  5 62  1  0  0  0  0
  6 14  1  0  0  0  0
  7 10  1  0  0  0  0
  7 63  1  0  0  0  0
  7 64  1  0  0  0  0
  8 27  1  0  0  0  0
  8 48  1  0  0  0  0
  8 65  1  0  0  0  0
  9 21  1  0  0  0  0
  9 23  1  0  0  0  0
 10 13  1  0  0  0  0
 10 66  1  0  0  0  0
 10 67  1  0  0  0  0
 11 19  1  0  0  0  0
 11 28  1  0  0  0  0
 11 68  1  0  0  0  0
 12 27  2  0  0  0  0
 13 16  2  0  0  0  0
 13 69  1  0  0  0  0
 14 44  1  0  0  0  0
 14 49  1  0  0  0  0
 15 28  2  0  0  0  0
 16 19  1  0  0  0  0
 16 70  1  0  0  0  0
 17 51  2  0  0  0  0
 17 52  1  0  0  0  0
 19 21  1  0  0  0  0
 19 71  1  1  0  0  0
 20 49  2  0  0  0  0
 22 50  1  0  0  0  0
 22 51  1  0  0  0  0
 23 25  1  0  0  0  0
 23 26  1  0  0  0  0
 23 72  1  1  0  0  0
 24 53  1  0  0  0  0
 24 73  1  0  0  0  0
 25 27  1  0  0  0  0
 25 74  1  0  0  0  0
 25 75  1  0  0  0  0
 26 76  1  0  0  0  0
 26 77  1  0  0  0  0
 26 78  1  0  0  0  0
 28 52  1  0  0  0  0
 29 30  1  0  0  0  0
 29 79  1  0  0  0  0
 29 80  1  0  0  0  0
 30 31  1  0  0  0  0
 30 81  1  0  0  0  0
 30 82  1  0  0  0  0
 31 32  1  0  0  0  0
 31 83  1  0  0  0  0
 31 84  1  0  0  0  0
 32 33  1  0  0  0  0
 32 85  1  0  0  0  0
 32 86  1  0  0  0  0
 33 34  1  0  0  0  0
 33 87  1  0  0  0  0
 33 88  1  0  0  0  0
 34 35  1  0  0  0  0
 34 89  1  0  0  0  0
 34 90  1  0  0  0  0
 35 36  1  0  0  0  0
 35 91  1  0  0  0  0
 35 92  1  0  0  0  0
 36 37  1  0  0  0  0
 36 93  1  0  0  0  0
 36 94  1  0  0  0  0
 37 38  1  0  0  0  0
 37 95  1  0  0  0  0
 37 96  1  0  0  0  0
 38 39  1  0  0  0  0
 38 97  1  0  0  0  0
 38 98  1  0  0  0  0
 39 40  1  0  0  0  0
 39 99  1  0  0  0  0
 39100  1  0  0  0  0
 40 41  1  0  0  0  0
 40101  1  0  0  0  0
 40102  1  0  0  0  0
 41 42  1  0  0  0  0
 41103  1  0  0  0  0
 41104  1  0  0  0  0
 42 43  1  0  0  0  0
 42105  1  0  0  0  0
 42106  1  0  0  0  0
 43107  1  0  0  0  0
 43108  1  0  0  0  0
 43109  1  0  0  0  0
 44 45  1  0  0  0  0
 44110  1  0  0  0  0
 44111  1  0  0  0  0
 45 46  1  0  0  0  0
 45112  1  0  0  0  0
 45113  1  0  0  0  0
 46 47  1  0  0  0  0
 46114  1  0  0  0  0
 46115  1  0  0  0  0
 47 48  1  0  0  0  0
 47116  1  0  0  0  0
 47117  1  0  0  0  0
 48 49  1  0  0  0  0
 48118  1  6  0  0  0
 50 52  1  0  0  0  0
 50119  1  0  0  0  0
 50120  1  0  0  0  0
 51 58  1  0  0  0  0
 52121  1  6  0  0  0
 53 54  2  0  0  0  0
 53 58  1  0  0  0  0
 54 55  1  0  0  0  0
 54122  1  0  0  0  0
 55 56  2  0  0  0  0
 55123  1  0  0  0  0
 56 57  1  0  0  0  0
 56124  1  0  0  0  0
 57 58  2  0  0  0  0
 57125  1  0  0  0  0
M  END
$$$$