/media/chris/experiments/cd1a-new-docking/inputs/ligands/1xz0_ligand.pdb
 OpenBabel07022319323D

125127  0  0  1  0  0  0  0  0999 V2000
  -40.9020   55.9054   59.7394 N   0  0  0  0  0  0  0  0  0  0  0  0
  -41.7138   54.9282   59.2558 C   0  0  0  0  0  0  0  0  0  0  0  0
  -34.9015   57.3291   63.0745 O   0  0  0  0  0  0  0  0  0  0  0  0
  -24.5842   59.7648   66.7364 Si  0  0  0  0  0  0  0  0  0  0  0  0
  -40.2286   56.6980   58.7993 O   0  0  0  0  0  0  0  0  0  0  0  0
  -25.9601   60.4253   65.8055 O   0  0  0  0  0  0  0  0  0  0  0  0
  -40.6183   56.2648   61.1323 C   0  0  0  0  0  0  0  0  0  0  0  0
  -29.7171   58.1431   65.0778 N   0  0  0  0  0  0  0  0  0  0  0  0
  -34.3234   59.2293   64.2555 O   0  0  0  0  0  0  0  0  0  0  0  0
  -39.1837   56.8269   61.2043 C   0  0  0  0  0  0  0  0  0  0  0  0
  -36.8950   59.8150   64.6310 N   0  0  0  0  0  0  0  0  0  0  0  0
  -31.0784   58.7088   66.7932 O   0  0  0  0  0  0  0  0  0  0  0  0
  -38.6590   57.2580   62.5844 C   0  0  0  0  0  0  0  0  0  0  0  0
  -26.9534   59.6044   65.3635 N   0  0  0  0  0  0  0  0  0  0  0  0
  -37.6467   59.1566   66.6741 O   0  0  0  0  0  0  0  0  0  0  0  0
  -37.6390   58.4030   62.6110 C   0  0  0  0  0  0  0  0  0  0  0  0
  -37.7584   62.3899   65.2583 N   0  0  0  0  0  0  0  0  0  0  0  0
  -41.8473   54.7523   58.0449 O   0  0  0  0  0  0  0  0  0  0  0  0
  -36.7890   58.5530   63.8960 C   0  0  1  0  0  0  0  0  0  0  0  0
  -27.5709   59.1867   67.4871 O   0  0  0  0  0  0  0  0  0  0  0  0
  -35.3080   58.3090   63.6770 C   0  0  0  0  0  0  0  0  0  0  0  0
  -35.9961   63.3797   66.2103 O   0  0  0  0  0  0  0  0  0  0  0  0
  -33.3633   58.7826   65.2315 C   0  0  1  0  0  0  0  0  0  0  0  0
  -34.7988   64.9712   64.1373 O   0  0  0  0  0  0  0  0  0  0  0  0
  -31.9677   59.0197   64.6745 C   0  0  0  0  0  0  0  0  0  0  0  0
  -33.5203   59.4153   66.6087 C   0  0  0  0  0  0  0  0  0  0  0  0
  -30.8714   58.5715   65.6092 C   0  0  0  0  0  0  0  0  0  0  0  0
  -37.2920   60.0330   65.8968 C   0  0  0  0  0  0  0  0  0  0  0  0
  -42.4759   54.0400   60.2448 C   0  0  0  0  0  0  0  0  0  0  0  0
  -41.7683   53.8355   61.5912 C   0  0  0  0  0  0  0  0  0  0  0  0
  -40.3880   53.1875   61.3699 C   0  0  0  0  0  0  0  0  0  0  0  0
  -39.6130   52.9296   62.6761 C   0  0  0  0  0  0  0  0  0  0  0  0
  -40.3167   51.9786   63.6622 C   0  0  0  0  0  0  0  0  0  0  0  0
  -40.5536   50.5719   63.0740 C   0  0  0  0  0  0  0  0  0  0  0  0
  -39.2642   49.8203   62.6686 C   0  0  0  0  0  0  0  0  0  0  0  0
  -38.4328   50.5603   61.6143 C   0  0  0  0  0  0  0  0  0  0  0  0
  -37.1533   49.8456   61.1684 C   0  0  0  0  0  0  0  0  0  0  0  0
  -36.2052   49.5992   62.3562 C   0  0  0  0  0  0  0  0  0  0  0  0
  -34.8932   48.8992   61.9708 C   0  0  0  0  0  0  0  0  0  0  0  0
  -34.0082   49.6486   60.9694 C   0  0  0  0  0  0  0  0  0  0  0  0
  -33.5285   51.0376   61.4597 C   0  0  0  0  0  0  0  0  0  0  0  0
  -32.6837   50.9226   62.7447 C   0  0  0  0  0  0  0  0  0  0  0  0
  -31.3928   50.0991   62.6621 C   0  0  0  0  0  0  0  0  0  0  0  0
  -27.1740   59.5434   63.9111 C   0  0  0  0  0  0  0  0  0  0  0  0
  -26.7708   58.1642   63.3560 C   0  0  0  0  0  0  0  0  0  0  0  0
  -26.4186   57.1209   64.4035 C   0  0  0  0  0  0  0  0  0  0  0  0
  -27.6209   56.6914   65.2483 C   0  0  0  0  0  0  0  0  0  0  0  0
  -28.5278   57.7753   65.8546 C   0  0  1  0  0  0  0  0  0  0  0  0
  -27.6494   58.9307   66.2933 C   0  0  0  0  0  0  0  0  0  0  0  0
  -36.1819   62.1930   66.9809 C   0  0  0  0  0  0  0  0  0  0  0  0
  -36.9992   63.3970   65.1753 C   0  0  0  0  0  0  0  0  0  0  0  0
  -37.4151   61.4760   66.3644 C   0  0  1  0  0  0  0  0  0  0  0  0
  -36.0372   65.2239   63.6965 C   0  0  0  0  0  0  0  0  0  0  0  0
  -36.2403   66.2253   62.7378 C   0  0  0  0  0  0  0  0  0  0  0  0
  -37.5314   66.5161   62.2661 C   0  0  0  0  0  0  0  0  0  0  0  0
  -38.6332   65.8020   62.7403 C   0  0  0  0  0  0  0  0  0  0  0  0
  -38.4350   64.7978   63.6920 C   0  0  0  0  0  0  0  0  0  0  0  0
  -37.1434   64.5100   64.1731 C   0  0  0  0  0  0  0  0  0  0  0  0
  -23.6939   60.8175   67.0764 H   0  0  0  0  0  0  0  0  0  0  0  0
  -23.8994   58.8013   65.9496 H   0  0  0  0  0  0  0  0  0  0  0  0
  -25.0664   59.1510   67.9227 H   0  0  0  0  0  0  0  0  0  0  0  0
  -40.4617   56.4062   57.9041 H   0  0  0  0  0  0  0  0  0  0  0  0
  -40.6987   55.3972   61.7534 H   0  0  0  0  0  0  0  0  0  0  0  0
  -41.3192   56.9974   61.4743 H   0  0  0  0  0  0  0  0  0  0  0  0
  -29.6639   58.0703   64.0975 H   0  0  0  0  0  0  0  0  0  0  0  0
  -39.1423   57.6831   60.5638 H   0  0  0  0  0  0  0  0  0  0  0  0
  -38.5557   56.0098   60.9167 H   0  0  0  0  0  0  0  0  0  0  0  0
  -36.6386   60.6199   64.1253 H   0  0  0  0  0  0  0  0  0  0  0  0
  -38.9782   56.7985   63.4515 H   0  0  0  0  0  0  0  0  0  0  0  0
  -37.5247   59.0434   61.8099 H   0  0  0  0  0  0  0  0  0  0  0  0
  -37.2383   57.7881   64.4943 H   0  0  0  0  0  0  0  0  0  0  0  0
  -33.5381   57.7401   65.3972 H   0  0  0  0  0  0  0  0  0  0  0  0
  -34.0736   65.4618   63.8039 H   0  0  0  0  0  0  0  0  0  0  0  0
  -31.8490   60.0666   64.4881 H   0  0  0  0  0  0  0  0  0  0  0  0
  -31.8795   58.4400   63.7794 H   0  0  0  0  0  0  0  0  0  0  0  0
  -33.3604   60.4708   66.5367 H   0  0  0  0  0  0  0  0  0  0  0  0
  -32.8032   58.9909   67.2800 H   0  0  0  0  0  0  0  0  0  0  0  0
  -34.5075   59.2284   66.9767 H   0  0  0  0  0  0  0  0  0  0  0  0
  -42.6173   53.0808   59.7923 H   0  0  0  0  0  0  0  0  0  0  0  0
  -43.3967   54.5416   60.4577 H   0  0  0  0  0  0  0  0  0  0  0  0
  -42.3636   53.1978   62.2108 H   0  0  0  0  0  0  0  0  0  0  0  0
  -41.6375   54.7852   62.0664 H   0  0  0  0  0  0  0  0  0  0  0  0
  -39.8039   53.8374   60.7524 H   0  0  0  0  0  0  0  0  0  0  0  0
  -40.5573   52.2356   60.9115 H   0  0  0  0  0  0  0  0  0  0  0  0
  -39.4642   53.8687   63.1667 H   0  0  0  0  0  0  0  0  0  0  0  0
  -38.6972   52.4524   62.3960 H   0  0  0  0  0  0  0  0  0  0  0  0
  -41.2630   52.4014   63.9280 H   0  0  0  0  0  0  0  0  0  0  0  0
  -39.6774   51.8675   64.5130 H   0  0  0  0  0  0  0  0  0  0  0  0
  -41.1690   50.6726   62.2045 H   0  0  0  0  0  0  0  0  0  0  0  0
  -41.0131   49.9923   63.8472 H   0  0  0  0  0  0  0  0  0  0  0  0
  -39.5389   48.8644   62.2739 H   0  0  0  0  0  0  0  0  0  0  0  0
  -38.6584   49.7371   63.5466 H   0  0  0  0  0  0  0  0  0  0  0  0
  -38.1560   51.5111   62.0196 H   0  0  0  0  0  0  0  0  0  0  0  0
  -39.0518   50.6283   60.7442 H   0  0  0  0  0  0  0  0  0  0  0  0
  -36.6517   50.4503   60.4421 H   0  0  0  0  0  0  0  0  0  0  0  0
  -37.4243   48.8982   60.7514 H   0  0  0  0  0  0  0  0  0  0  0  0
  -36.7145   48.9893   63.0728 H   0  0  0  0  0  0  0  0  0  0  0  0
  -35.9415   50.5595   62.7475 H   0  0  0  0  0  0  0  0  0  0  0  0
  -35.1404   47.9496   61.5442 H   0  0  0  0  0  0  0  0  0  0  0  0
  -34.3217   48.8348   62.8731 H   0  0  0  0  0  0  0  0  0  0  0  0
  -34.5655   49.7858   60.0664 H   0  0  0  0  0  0  0  0  0  0  0  0
  -33.1306   49.0527   60.8292 H   0  0  0  0  0  0  0  0  0  0  0  0
  -34.3829   51.6502   61.6589 H   0  0  0  0  0  0  0  0  0  0  0  0
  -32.9189   51.4715   60.6948 H   0  0  0  0  0  0  0  0  0  0  0  0
  -33.3012   50.4788   63.4974 H   0  0  0  0  0  0  0  0  0  0  0  0
  -32.3614   51.9212   62.9538 H   0  0  0  0  0  0  0  0  0  0  0  0
  -31.6340   49.0778   62.4534 H   0  0  0  0  0  0  0  0  0  0  0  0
  -30.8712   50.1591   63.5944 H   0  0  0  0  0  0  0  0  0  0  0  0
  -30.7724   50.4859   61.8808 H   0  0  0  0  0  0  0  0  0  0  0  0
  -26.5855   60.2994   63.4345 H   0  0  0  0  0  0  0  0  0  0  0  0
  -28.2136   59.7026   63.7142 H   0  0  0  0  0  0  0  0  0  0  0  0
  -25.9183   58.2987   62.7235 H   0  0  0  0  0  0  0  0  0  0  0  0
  -27.6308   57.7890   62.8417 H   0  0  0  0  0  0  0  0  0  0  0  0
  -25.6733   57.5289   65.0538 H   0  0  0  0  0  0  0  0  0  0  0  0
  -26.0656   56.2539   63.8854 H   0  0  0  0  0  0  0  0  0  0  0  0
  -27.2413   56.1086   66.0614 H   0  0  0  0  0  0  0  0  0  0  0  0
  -28.2560   56.1829   64.5534 H   0  0  0  0  0  0  0  0  0  0  0  0
  -29.0128   57.3589   66.7126 H   0  0  0  0  0  0  0  0  0  0  0  0
  -36.3679   62.4394   68.0054 H   0  0  0  0  0  0  0  0  0  0  0  0
  -35.3126   61.5695   66.9592 H   0  0  0  0  0  0  0  0  0  0  0  0
  -38.1531   61.3234   67.1239 H   0  0  0  0  0  0  0  0  0  0  0  0
  -35.4327   66.7550   62.3742 H   0  0  0  0  0  0  0  0  0  0  0  0
  -37.6660   67.2617   61.5653 H   0  0  0  0  0  0  0  0  0  0  0  0
  -39.5817   66.0128   62.3926 H   0  0  0  0  0  0  0  0  0  0  0  0
  -39.2432   64.2621   64.0455 H   0  0  0  0  0  0  0  0  0  0  0  0
  1  2  1  0  0  0  0
  1  5  1  0  0  0  0
  1  7  1  0  0  0  0
  2 18  2  0  0  0  0
  2 29  1  0  0  0  0
  3 21  2  0  0  0  0
  4  6  1  0  0  0  0
  4 59  1  0  0  0  0
  4 60  1  0  0  0  0
  4 61  1  0  0  0  0
  5 62  1  0  0  0  0
  6 14  1  0  0  0  0
  7 10  1  0  0  0  0
  7 63  1  0  0  0  0
  7 64  1  0  0  0  0
  8 27  1  0  0  0  0
  8 48  1  0  0  0  0
  8 65  1  0  0  0  0
  9 21  1  0  0  0  0
  9 23  1  0  0  0  0
 10 13  1  0  0  0  0
 10 66  1  0  0  0  0
 10 67  1  0  0  0  0
 11 19  1  0  0  0  0
 11 28  1  0  0  0  0
 11 68  1  0  0  0  0
 12 27  2  0  0  0  0
 13 16  2  0  0  0  0
 13 69  1  0  0  0  0
 14 44  1  0  0  0  0
 14 49  1  0  0  0  0
 15 28  2  0  0  0  0
 16 19  1  0  0  0  0
 16 70  1  0  0  0  0
 17 51  2  0  0  0  0
 17 52  1  0  0  0  0
 19 21  1  0  0  0  0
 19 71  1  1  0  0  0
 20 49  2  0  0  0  0
 22 50  1  0  0  0  0
 22 51  1  0  0  0  0
 23 25  1  0  0  0  0
 23 26  1  0  0  0  0
 23 72  1  1  0  0  0
 24 53  1  0  0  0  0
 24 73  1  0  0  0  0
 25 27  1  0  0  0  0
 25 74  1  0  0  0  0
 25 75  1  0  0  0  0
 26 76  1  0  0  0  0
 26 77  1  0  0  0  0
 26 78  1  0  0  0  0
 28 52  1  0  0  0  0
 29 30  1  0  0  0  0
 29 79  1  0  0  0  0
 29 80  1  0  0  0  0
 30 31  1  0  0  0  0
 30 81  1  0  0  0  0
 30 82  1  0  0  0  0
 31 32  1  0  0  0  0
 31 83  1  0  0  0  0
 31 84  1  0  0  0  0
 32 33  1  0  0  0  0
 32 85  1  0  0  0  0
 32 86  1  0  0  0  0
 33 34  1  0  0  0  0
 33 87  1  0  0  0  0
 33 88  1  0  0  0  0
 34 35  1  0  0  0  0
 34 89  1  0  0  0  0
 34 90  1  0  0  0  0
 35 36  1  0  0  0  0
 35 91  1  0  0  0  0
 35 92  1  0  0  0  0
 36 37  1  0  0  0  0
 36 93  1  0  0  0  0
 36 94  1  0  0  0  0
 37 38  1  0  0  0  0
 37 95  1  0  0  0  0
 37 96  1  0  0  0  0
 38 39  1  0  0  0  0
 38 97  1  0  0  0  0
 38 98  1  0  0  0  0
 39 40  1  0  0  0  0
 39 99  1  0  0  0  0
 39100  1  0  0  0  0
 40 41  1  0  0  0  0
 40101  1  0  0  0  0
 40102  1  0  0  0  0
 41 42  1  0  0  0  0
 41103  1  0  0  0  0
 41104  1  0  0  0  0
 42 43  1  0  0  0  0
 42105  1  0  0  0  0
 42106  1  0  0  0  0
 43107  1  0  0  0  0
 43108  1  0  0  0  0
 43109  1  0  0  0  0
 44 45  1  0  0  0  0
 44110  1  0  0  0  0
 44111  1  0  0  0  0
 45 46  1  0  0  0  0
 45112  1  0  0  0  0
 45113  1  0  0  0  0
 46 47  1  0  0  0  0
 46114  1  0  0  0  0
 46115  1  0  0  0  0
 47 48  1  0  0  0  0
 47116  1  0  0  0  0
 47117  1  0  0  0  0
 48 49  1  0  0  0  0
 48118  1  1  0  0  0
 50 52  1  0  0  0  0
 50119  1  0  0  0  0
 50120  1  0  0  0  0
 51 58  1  0  0  0  0
 52121  1  1  0  0  0
 53 54  2  0  0  0  0
 53 58  1  0  0  0  0
 54 55  1  0  0  0  0
 54122  1  0  0  0  0
 55 56  2  0  0  0  0
 55123  1  0  0  0  0
 56 57  1  0  0  0  0
 56124  1  0  0  0  0
 57 58  2  0  0  0  0
 57125  1  0  0  0  0
M  END
$$$$