/media/chris/experiments/cd1a-new-docking/inputs/ligands/5j1a_ligand.pdb
 OpenBabel07022311203D

 55 55  0  0  0  0  0  0  0  0999 V2000
  -38.4111   51.6237   64.5696 C   0  0  0  0  0  0  0  0  0  0  0  0
  -38.3395   54.4289   61.5747 C   0  0  0  0  0  0  0  0  0  0  0  0
  -36.6153   55.8478   60.5131 C   0  0  0  0  0  0  0  0  0  0  0  0
  -39.0119   53.1447   62.1163 C   0  0  0  0  0  0  0  0  0  0  0  0
  -37.1362   57.0564   61.3152 C   0  0  0  0  0  0  0  0  0  0  0  0
  -42.4539   61.2907   66.9580 C   0  0  0  0  0  0  0  0  0  0  0  0
  -42.7083   62.6015   66.5334 C   0  0  0  0  0  0  0  0  0  0  0  0
  -42.5638   60.2223   66.0600 C   0  0  0  0  0  0  0  0  0  0  0  0
  -37.5103   51.5911   63.3325 C   0  0  0  0  0  0  0  0  0  0  0  0
  -36.9605   54.4014   60.8995 C   0  0  0  0  0  0  0  0  0  0  0  0
  -38.3184   51.7704   62.0401 C   0  0  0  0  0  0  0  0  0  0  0  0
  -38.1263   56.8452   62.4620 C   0  0  0  0  0  0  0  0  0  0  0  0
  -39.5380   56.9300   61.8820 C   0  0  0  0  0  0  0  0  0  0  0  0
  -40.5750   56.7430   62.9900 C   0  0  0  0  0  0  0  0  0  0  0  0
  -41.9730   56.8130   62.3910 C   0  0  0  0  0  0  0  0  0  0  0  0
  -42.1931   58.1680   61.7021 C   0  0  0  0  0  0  0  0  0  0  0  0
  -42.0339   59.3769   62.6604 C   0  0  0  0  0  0  0  0  0  0  0  0
  -43.0176   59.3408   63.8539 C   0  0  0  0  0  0  0  0  0  0  0  0
  -43.0678   62.8178   65.2033 C   0  0  0  0  0  0  0  0  0  0  0  0
  -43.1678   61.7504   64.3126 C   0  0  0  0  0  0  0  0  0  0  0  0
  -42.8911   60.4380   64.7166 C   0  0  0  0  0  0  0  0  0  0  0  0
  -43.3327   64.0543   64.7148 O   0  0  0  0  0  0  0  0  0  0  0  0
  -43.5150   62.0107   63.0190 O   0  0  0  0  0  0  0  0  0  0  0  0
  -37.8145   51.4961   65.4486 H   0  0  0  0  0  0  0  0  0  0  0  0
  -39.1298   50.8334   64.5084 H   0  0  0  0  0  0  0  0  0  0  0  0
  -38.9186   52.5645   64.6165 H   0  0  0  0  0  0  0  0  0  0  0  0
  -38.8324   55.3306   61.6701 H   0  0  0  0  0  0  0  0  0  0  0  0
  -36.0156   56.0155   59.6901 H   0  0  0  0  0  0  0  0  0  0  0  0
  -39.9506   53.2102   62.5401 H   0  0  0  0  0  0  0  0  0  0  0  0
  -36.8168   58.0088   61.0785 H   0  0  0  0  0  0  0  0  0  0  0  0
  -42.1839   61.1119   67.9379 H   0  0  0  0  0  0  0  0  0  0  0  0
  -42.6312   63.3919   67.1924 H   0  0  0  0  0  0  0  0  0  0  0  0
  -42.4008   59.2596   66.3943 H   0  0  0  0  0  0  0  0  0  0  0  0
  -37.0030   50.6496   63.2971 H   0  0  0  0  0  0  0  0  0  0  0  0
  -36.8123   52.3988   63.4055 H   0  0  0  0  0  0  0  0  0  0  0  0
  -36.9927   53.7859   60.0248 H   0  0  0  0  0  0  0  0  0  0  0  0
  -36.2218   53.9980   61.5603 H   0  0  0  0  0  0  0  0  0  0  0  0
  -37.6655   51.7368   61.1930 H   0  0  0  0  0  0  0  0  0  0  0  0
  -39.0409   50.9882   61.9350 H   0  0  0  0  0  0  0  0  0  0  0  0
  -37.9914   57.6045   63.2038 H   0  0  0  0  0  0  0  0  0  0  0  0
  -37.9678   55.8923   62.9220 H   0  0  0  0  0  0  0  0  0  0  0  0
  -39.6646   56.1636   61.1461 H   0  0  0  0  0  0  0  0  0  0  0  0
  -39.6747   57.8920   61.4340 H   0  0  0  0  0  0  0  0  0  0  0  0
  -40.4604   57.5164   63.7205 H   0  0  0  0  0  0  0  0  0  0  0  0
  -40.4329   55.7901   63.4556 H   0  0  0  0  0  0  0  0  0  0  0  0
  -42.6967   56.6917   63.1697 H   0  0  0  0  0  0  0  0  0  0  0  0
  -42.0793   56.0336   61.6657 H   0  0  0  0  0  0  0  0  0  0  0  0
  -43.1825   58.1853   61.2952 H   0  0  0  0  0  0  0  0  0  0  0  0
  -41.4436   58.2636   60.9445 H   0  0  0  0  0  0  0  0  0  0  0  0
  -42.2048   60.2757   62.1056 H   0  0  0  0  0  0  0  0  0  0  0  0
  -41.0433   59.3358   63.0628 H   0  0  0  0  0  0  0  0  0  0  0  0
  -42.8376   58.4471   64.4141 H   0  0  0  0  0  0  0  0  0  0  0  0
  -44.0067   59.3730   63.4472 H   0  0  0  0  0  0  0  0  0  0  0  0
  -43.2781   64.8018   65.2771 H   0  0  0  0  0  0  0  0  0  0  0  0
  -43.6996   62.8895   62.7512 H   0  0  0  0  0  0  0  0  0  0  0  0
  1  9  1  0  0  0  0
  1 24  1  0  0  0  0
  1 25  1  0  0  0  0
  1 26  1  0  0  0  0
  2  4  2  0  0  0  0
  2 10  1  0  0  0  0
  2 27  1  0  0  0  0
  3  5  2  0  0  0  0
  3 10  1  0  0  0  0
  3 28  1  0  0  0  0
  4 11  1  0  0  0  0
  4 29  1  0  0  0  0
  5 12  1  0  0  0  0
  5 30  1  0  0  0  0
  6  7  2  0  0  0  0
  6  8  1  0  0  0  0
  6 31  1  0  0  0  0
  7 19  1  0  0  0  0
  7 32  1  0  0  0  0
  8 21  2  0  0  0  0
  8 33  1  0  0  0  0
  9 11  1  0  0  0  0
  9 34  1  0  0  0  0
  9 35  1  0  0  0  0
 10 36  1  0  0  0  0
 10 37  1  0  0  0  0
 11 38  1  0  0  0  0
 11 39  1  0  0  0  0
 12 13  1  0  0  0  0
 12 40  1  0  0  0  0
 12 41  1  0  0  0  0
 13 14  1  0  0  0  0
 13 42  1  0  0  0  0
 13 43  1  0  0  0  0
 14 15  1  0  0  0  0
 14 44  1  0  0  0  0
 14 45  1  0  0  0  0
 15 16  1  0  0  0  0
 15 46  1  0  0  0  0
 15 47  1  0  0  0  0
 16 17  1  0  0  0  0
 16 48  1  0  0  0  0
 16 49  1  0  0  0  0
 17 18  1  0  0  0  0
 17 50  1  0  0  0  0
 17 51  1  0  0  0  0
 18 21  1  0  0  0  0
 18 52  1  0  0  0  0
 18 53  1  0  0  0  0
 19 20  2  0  0  0  0
 19 22  1  0  0  0  0
 20 21  1  0  0  0  0
 20 23  1  0  0  0  0
 22 54  1  0  0  0  0
 23 55  1  0  0  0  0
M  END
$$$$