/media/chris/experiments/cd1a-new-docking/inputs/ligands/5j1a_ligand.pdb
 OpenBabel07022311203D

 55 55  0  0  0  0  0  0  0  0999 V2000
  -40.4834   55.1623   54.3515 C   0  0  0  0  0  0  0  0  0  0  0  0
  -41.4945   52.7445   58.1106 C   0  0  0  0  0  0  0  0  0  0  0  0
  -41.5737   54.9940   59.1336 C   0  0  0  0  0  0  0  0  0  0  0  0
  -41.5843   52.2550   56.6453 C   0  0  0  0  0  0  0  0  0  0  0  0
  -41.1044   55.9720   60.2283 C   0  0  0  0  0  0  0  0  0  0  0  0
  -41.8020   60.2265   60.7501 C   0  0  0  0  0  0  0  0  0  0  0  0
  -40.4233   60.2178   60.9998 C   0  0  0  0  0  0  0  0  0  0  0  0
  -42.7059   59.8739   61.7594 C   0  0  0  0  0  0  0  0  0  0  0  0
  -41.2120   54.4020   55.4624 C   0  0  0  0  0  0  0  0  0  0  0  0
  -40.6325   53.9499   58.5133 C   0  0  0  0  0  0  0  0  0  0  0  0
  -40.7845   52.9288   55.5131 C   0  0  0  0  0  0  0  0  0  0  0  0
  -39.6997   55.8424   60.8202 C   0  0  0  0  0  0  0  0  0  0  0  0
  -39.5380   56.9300   61.8820 C   0  0  0  0  0  0  0  0  0  0  0  0
  -40.5750   56.7430   62.9900 C   0  0  0  0  0  0  0  0  0  0  0  0
  -41.9730   56.8130   62.3910 C   0  0  0  0  0  0  0  0  0  0  0  0
  -43.0346   56.6452   63.4882 C   0  0  0  0  0  0  0  0  0  0  0  0
  -42.9688   57.7452   64.5794 C   0  0  0  0  0  0  0  0  0  0  0  0
  -43.1948   59.1702   64.0212 C   0  0  0  0  0  0  0  0  0  0  0  0
  -39.9738   59.8561   62.2696 C   0  0  0  0  0  0  0  0  0  0  0  0
  -40.8797   59.5139   63.2722 C   0  0  0  0  0  0  0  0  0  0  0  0
  -42.2615   59.5431   63.0444 C   0  0  0  0  0  0  0  0  0  0  0  0
  -38.6573   59.8202   62.5907 O   0  0  0  0  0  0  0  0  0  0  0  0
  -40.3944   59.1743   64.5014 O   0  0  0  0  0  0  0  0  0  0  0  0
  -40.8060   56.1825   54.3468 H   0  0  0  0  0  0  0  0  0  0  0  0
  -40.7066   54.7132   53.4063 H   0  0  0  0  0  0  0  0  0  0  0  0
  -39.4283   55.1227   54.5250 H   0  0  0  0  0  0  0  0  0  0  0  0
  -42.0297   52.2461   58.8387 H   0  0  0  0  0  0  0  0  0  0  0  0
  -42.5514   55.0418   58.8067 H   0  0  0  0  0  0  0  0  0  0  0  0
  -42.1965   51.4553   56.4200 H   0  0  0  0  0  0  0  0  0  0  0  0
  -41.7381   56.7149   60.5623 H   0  0  0  0  0  0  0  0  0  0  0  0
  -42.1530   60.4941   59.8173 H   0  0  0  0  0  0  0  0  0  0  0  0
  -39.7531   60.4743   60.2581 H   0  0  0  0  0  0  0  0  0  0  0  0
  -43.7168   59.8578   61.5522 H   0  0  0  0  0  0  0  0  0  0  0  0
  -42.2658   54.4518   55.2837 H   0  0  0  0  0  0  0  0  0  0  0  0
  -40.9611   54.8557   56.3984 H   0  0  0  0  0  0  0  0  0  0  0  0
  -40.1484   54.3589   57.6512 H   0  0  0  0  0  0  0  0  0  0  0  0
  -39.8749   53.6593   59.2109 H   0  0  0  0  0  0  0  0  0  0  0  0
  -41.0008   52.4530   54.5795 H   0  0  0  0  0  0  0  0  0  0  0  0
  -39.7330   52.8468   55.6931 H   0  0  0  0  0  0  0  0  0  0  0  0
  -38.9673   55.9727   60.0511 H   0  0  0  0  0  0  0  0  0  0  0  0
  -39.5648   54.8736   61.2538 H   0  0  0  0  0  0  0  0  0  0  0  0
  -39.6739   57.8897   61.4288 H   0  0  0  0  0  0  0  0  0  0  0  0
  -38.5577   56.8621   62.3055 H   0  0  0  0  0  0  0  0  0  0  0  0
  -40.4604   57.5164   63.7205 H   0  0  0  0  0  0  0  0  0  0  0  0
  -40.4329   55.7901   63.4556 H   0  0  0  0  0  0  0  0  0  0  0  0
  -42.0864   56.0321   61.6683 H   0  0  0  0  0  0  0  0  0  0  0  0
  -42.1035   57.7672   61.9248 H   0  0  0  0  0  0  0  0  0  0  0  0
  -42.8917   55.6937   63.9563 H   0  0  0  0  0  0  0  0  0  0  0  0
  -43.9921   56.7233   63.0171 H   0  0  0  0  0  0  0  0  0  0  0  0
  -42.0041   57.7095   65.0408 H   0  0  0  0  0  0  0  0  0  0  0  0
  -43.7553   57.5483   65.2777 H   0  0  0  0  0  0  0  0  0  0  0  0
  -43.1322   59.8654   64.8322 H   0  0  0  0  0  0  0  0  0  0  0  0
  -44.1577   59.1761   63.5545 H   0  0  0  0  0  0  0  0  0  0  0  0
  -38.0122   60.0424   61.9485 H   0  0  0  0  0  0  0  0  0  0  0  0
  -39.4696   59.1554   64.6511 H   0  0  0  0  0  0  0  0  0  0  0  0
  1  9  1  0  0  0  0
  1 24  1  0  0  0  0
  1 25  1  0  0  0  0
  1 26  1  0  0  0  0
  2  4  2  0  0  0  0
  2 10  1  0  0  0  0
  2 27  1  0  0  0  0
  3  5  2  0  0  0  0
  3 10  1  0  0  0  0
  3 28  1  0  0  0  0
  4 11  1  0  0  0  0
  4 29  1  0  0  0  0
  5 12  1  0  0  0  0
  5 30  1  0  0  0  0
  6  7  2  0  0  0  0
  6  8  1  0  0  0  0
  6 31  1  0  0  0  0
  7 19  1  0  0  0  0
  7 32  1  0  0  0  0
  8 21  2  0  0  0  0
  8 33  1  0  0  0  0
  9 11  1  0  0  0  0
  9 34  1  0  0  0  0
  9 35  1  0  0  0  0
 10 36  1  0  0  0  0
 10 37  1  0  0  0  0
 11 38  1  0  0  0  0
 11 39  1  0  0  0  0
 12 13  1  0  0  0  0
 12 40  1  0  0  0  0
 12 41  1  0  0  0  0
 13 14  1  0  0  0  0
 13 42  1  0  0  0  0
 13 43  1  0  0  0  0
 14 15  1  0  0  0  0
 14 44  1  0  0  0  0
 14 45  1  0  0  0  0
 15 16  1  0  0  0  0
 15 46  1  0  0  0  0
 15 47  1  0  0  0  0
 16 17  1  0  0  0  0
 16 48  1  0  0  0  0
 16 49  1  0  0  0  0
 17 18  1  0  0  0  0
 17 50  1  0  0  0  0
 17 51  1  0  0  0  0
 18 21  1  0  0  0  0
 18 52  1  0  0  0  0
 18 53  1  0  0  0  0
 19 20  2  0  0  0  0
 19 22  1  0  0  0  0
 20 21  1  0  0  0  0
 20 23  1  0  0  0  0
 22 54  1  0  0  0  0
 23 55  1  0  0  0  0
M  END
$$$$