/media/chris/experiments/cd1a-new-docking/inputs/ligands/5j1a_ligand.pdb
 OpenBabel07022311203D

 55 55  0  0  0  0  0  0  0  0999 V2000
  -38.9415   49.6731   61.9431 C   0  0  0  0  0  0  0  0  0  0  0  0
  -37.8376   53.0947   60.0105 C   0  0  0  0  0  0  0  0  0  0  0  0
  -38.0926   54.1974   62.2087 C   0  0  0  0  0  0  0  0  0  0  0  0
  -38.5218   51.7131   59.8776 C   0  0  0  0  0  0  0  0  0  0  0  0
  -37.9593   55.4582   63.0851 C   0  0  0  0  0  0  0  0  0  0  0  0
  -45.6256   52.3659   63.6023 C   0  0  0  0  0  0  0  0  0  0  0  0
  -44.3894   51.7063   63.6113 C   0  0  0  0  0  0  0  0  0  0  0  0
  -45.7411   53.6445   63.0440 C   0  0  0  0  0  0  0  0  0  0  0  0
  -39.7780   50.9531   61.8757 C   0  0  0  0  0  0  0  0  0  0  0  0
  -38.5128   54.2699   60.7326 C   0  0  0  0  0  0  0  0  0  0  0  0
  -39.9356   51.4499   60.4321 C   0  0  0  0  0  0  0  0  0  0  0  0
  -38.1263   56.8452   62.4620 C   0  0  0  0  0  0  0  0  0  0  0  0
  -39.5380   56.9300   61.8820 C   0  0  0  0  0  0  0  0  0  0  0  0
  -40.5750   56.7430   62.9900 C   0  0  0  0  0  0  0  0  0  0  0  0
  -41.9730   56.8130   62.3910 C   0  0  0  0  0  0  0  0  0  0  0  0
  -43.0346   56.6452   63.4882 C   0  0  0  0  0  0  0  0  0  0  0  0
  -44.4877   56.6885   62.9483 C   0  0  0  0  0  0  0  0  0  0  0  0
  -44.7906   55.5673   61.9262 C   0  0  0  0  0  0  0  0  0  0  0  0
  -43.2836   52.3462   63.0517 C   0  0  0  0  0  0  0  0  0  0  0  0
  -43.4074   53.6161   62.4905 C   0  0  0  0  0  0  0  0  0  0  0  0
  -44.6421   54.2764   62.4512 C   0  0  0  0  0  0  0  0  0  0  0  0
  -42.0534   51.7776   63.0231 O   0  0  0  0  0  0  0  0  0  0  0  0
  -42.3000   54.1999   61.9476 O   0  0  0  0  0  0  0  0  0  0  0  0
  -38.8535   49.3577   62.9618 H   0  0  0  0  0  0  0  0  0  0  0  0
  -37.9673   49.8621   61.5429 H   0  0  0  0  0  0  0  0  0  0  0  0
  -39.4188   48.9045   61.3718 H   0  0  0  0  0  0  0  0  0  0  0  0
  -36.8997   53.2304   59.6017 H   0  0  0  0  0  0  0  0  0  0  0  0
  -37.8932   53.2752   62.6266 H   0  0  0  0  0  0  0  0  0  0  0  0
  -38.0176   50.9468   59.4048 H   0  0  0  0  0  0  0  0  0  0  0  0
  -37.7574   55.3665   64.0930 H   0  0  0  0  0  0  0  0  0  0  0  0
  -46.4553   51.9067   64.0094 H   0  0  0  0  0  0  0  0  0  0  0  0
  -44.2988   50.7649   64.0241 H   0  0  0  0  0  0  0  0  0  0  0  0
  -46.6519   54.1292   63.0701 H   0  0  0  0  0  0  0  0  0  0  0  0
  -39.2962   51.7136   62.4540 H   0  0  0  0  0  0  0  0  0  0  0  0
  -40.7516   50.7373   62.2635 H   0  0  0  0  0  0  0  0  0  0  0  0
  -39.5765   54.1887   60.6497 H   0  0  0  0  0  0  0  0  0  0  0  0
  -38.2178   55.2024   60.2988 H   0  0  0  0  0  0  0  0  0  0  0  0
  -40.4275   50.7058   59.8411 H   0  0  0  0  0  0  0  0  0  0  0  0
  -40.5251   52.3424   60.4022 H   0  0  0  0  0  0  0  0  0  0  0  0
  -37.4044   56.9844   61.6846 H   0  0  0  0  0  0  0  0  0  0  0  0
  -37.9789   57.6065   63.1994 H   0  0  0  0  0  0  0  0  0  0  0  0
  -39.6646   56.1636   61.1461 H   0  0  0  0  0  0  0  0  0  0  0  0
  -39.6747   57.8920   61.4340 H   0  0  0  0  0  0  0  0  0  0  0  0
  -40.4604   57.5164   63.7205 H   0  0  0  0  0  0  0  0  0  0  0  0
  -40.4329   55.7901   63.4556 H   0  0  0  0  0  0  0  0  0  0  0  0
  -42.0864   56.0321   61.6683 H   0  0  0  0  0  0  0  0  0  0  0  0
  -42.1035   57.7672   61.9248 H   0  0  0  0  0  0  0  0  0  0  0  0
  -42.9137   57.4339   64.2011 H   0  0  0  0  0  0  0  0  0  0  0  0
  -42.8880   55.6799   63.9258 H   0  0  0  0  0  0  0  0  0  0  0  0
  -44.6460   57.6340   62.4730 H   0  0  0  0  0  0  0  0  0  0  0  0
  -45.1418   56.5440   63.7826 H   0  0  0  0  0  0  0  0  0  0  0  0
  -44.1221   55.6748   61.0977 H   0  0  0  0  0  0  0  0  0  0  0  0
  -45.8154   55.6734   61.6376 H   0  0  0  0  0  0  0  0  0  0  0  0
  -41.9228   50.9248   63.3887 H   0  0  0  0  0  0  0  0  0  0  0  0
  -41.4753   53.7561   61.9752 H   0  0  0  0  0  0  0  0  0  0  0  0
  1  9  1  0  0  0  0
  1 24  1  0  0  0  0
  1 25  1  0  0  0  0
  1 26  1  0  0  0  0
  2  4  2  0  0  0  0
  2 10  1  0  0  0  0
  2 27  1  0  0  0  0
  3  5  2  0  0  0  0
  3 10  1  0  0  0  0
  3 28  1  0  0  0  0
  4 11  1  0  0  0  0
  4 29  1  0  0  0  0
  5 12  1  0  0  0  0
  5 30  1  0  0  0  0
  6  7  2  0  0  0  0
  6  8  1  0  0  0  0
  6 31  1  0  0  0  0
  7 19  1  0  0  0  0
  7 32  1  0  0  0  0
  8 21  2  0  0  0  0
  8 33  1  0  0  0  0
  9 11  1  0  0  0  0
  9 34  1  0  0  0  0
  9 35  1  0  0  0  0
 10 36  1  0  0  0  0
 10 37  1  0  0  0  0
 11 38  1  0  0  0  0
 11 39  1  0  0  0  0
 12 13  1  0  0  0  0
 12 40  1  0  0  0  0
 12 41  1  0  0  0  0
 13 14  1  0  0  0  0
 13 42  1  0  0  0  0
 13 43  1  0  0  0  0
 14 15  1  0  0  0  0
 14 44  1  0  0  0  0
 14 45  1  0  0  0  0
 15 16  1  0  0  0  0
 15 46  1  0  0  0  0
 15 47  1  0  0  0  0
 16 17  1  0  0  0  0
 16 48  1  0  0  0  0
 16 49  1  0  0  0  0
 17 18  1  0  0  0  0
 17 50  1  0  0  0  0
 17 51  1  0  0  0  0
 18 21  1  0  0  0  0
 18 52  1  0  0  0  0
 18 53  1  0  0  0  0
 19 20  2  0  0  0  0
 19 22  1  0  0  0  0
 20 21  1  0  0  0  0
 20 23  1  0  0  0  0
 22 54  1  0  0  0  0
 23 55  1  0  0  0  0
M  END
$$$$