/media/chris/experiments/cd1a-new-docking/inputs/ligands/5j1a_ligand.pdb
 OpenBabel07022311203D

 55 55  0  0  0  0  0  0  0  0999 V2000
  -35.8250   60.8720   66.7499 C   0  0  0  0  0  0  0  0  0  0  0  0
  -35.7075   59.1898   63.0327 C   0  0  0  0  0  0  0  0  0  0  0  0
  -38.1640   59.4703   63.0317 C   0  0  0  0  0  0  0  0  0  0  0  0
  -35.0303   59.2748   64.4216 C   0  0  0  0  0  0  0  0  0  0  0  0
  -39.5120   59.3667   62.2916 C   0  0  0  0  0  0  0  0  0  0  0  0
  -47.4984   57.6011   59.5003 C   0  0  0  0  0  0  0  0  0  0  0  0
  -47.7337   57.0768   58.2224 C   0  0  0  0  0  0  0  0  0  0  0  0
  -46.2108   57.5758   60.0493 C   0  0  0  0  0  0  0  0  0  0  0  0
  -36.5711   59.6010   66.3367 C   0  0  0  0  0  0  0  0  0  0  0  0
  -37.0358   58.4490   62.8202 C   0  0  0  0  0  0  0  0  0  0  0  0
  -35.6339   58.5893   65.6631 C   0  0  0  0  0  0  0  0  0  0  0  0
  -39.7162   58.2956   61.2187 C   0  0  0  0  0  0  0  0  0  0  0  0
  -39.5380   56.9300   61.8820 C   0  0  0  0  0  0  0  0  0  0  0  0
  -40.5750   56.7430   62.9900 C   0  0  0  0  0  0  0  0  0  0  0  0
  -41.9730   56.8130   62.3910 C   0  0  0  0  0  0  0  0  0  0  0  0
  -42.1661   55.6996   61.3507 C   0  0  0  0  0  0  0  0  0  0  0  0
  -43.5658   55.7191   60.6834 C   0  0  0  0  0  0  0  0  0  0  0  0
  -43.8575   57.0325   59.9198 C   0  0  0  0  0  0  0  0  0  0  0  0
  -46.6625   56.5358   57.5118 C   0  0  0  0  0  0  0  0  0  0  0  0
  -45.3815   56.5210   58.0611 C   0  0  0  0  0  0  0  0  0  0  0  0
  -45.1269   57.0649   59.3266 C   0  0  0  0  0  0  0  0  0  0  0  0
  -46.8069   56.0069   56.2720 O   0  0  0  0  0  0  0  0  0  0  0  0
  -44.3628   55.9885   57.3260 O   0  0  0  0  0  0  0  0  0  0  0  0
  -36.5084   61.5517   67.2146 H   0  0  0  0  0  0  0  0  0  0  0  0
  -35.3977   61.3324   65.8837 H   0  0  0  0  0  0  0  0  0  0  0  0
  -35.0473   60.6205   67.4405 H   0  0  0  0  0  0  0  0  0  0  0  0
  -35.2531   59.6445   62.2254 H   0  0  0  0  0  0  0  0  0  0  0  0
  -38.0145   60.2506   63.6903 H   0  0  0  0  0  0  0  0  0  0  0  0
  -34.1504   59.8050   64.5192 H   0  0  0  0  0  0  0  0  0  0  0  0
  -40.2772   60.0203   62.5200 H   0  0  0  0  0  0  0  0  0  0  0  0
  -48.2785   58.0080   60.0398 H   0  0  0  0  0  0  0  0  0  0  0  0
  -48.6816   57.0907   57.8148 H   0  0  0  0  0  0  0  0  0  0  0  0
  -46.0585   57.9401   61.0028 H   0  0  0  0  0  0  0  0  0  0  0  0
  -37.3497   59.8629   65.6511 H   0  0  0  0  0  0  0  0  0  0  0  0
  -36.9743   59.1482   67.2183 H   0  0  0  0  0  0  0  0  0  0  0  0
  -37.1272   57.6502   63.5263 H   0  0  0  0  0  0  0  0  0  0  0  0
  -37.0833   58.0284   61.8375 H   0  0  0  0  0  0  0  0  0  0  0  0
  -34.8547   58.3062   66.3395 H   0  0  0  0  0  0  0  0  0  0  0  0
  -36.1697   57.7062   65.3838 H   0  0  0  0  0  0  0  0  0  0  0  0
  -38.9937   58.4187   60.4392 H   0  0  0  0  0  0  0  0  0  0  0  0
  -40.6929   58.3780   60.7895 H   0  0  0  0  0  0  0  0  0  0  0  0
  -38.5560   56.8665   62.3023 H   0  0  0  0  0  0  0  0  0  0  0  0
  -39.6703   56.1642   61.1465 H   0  0  0  0  0  0  0  0  0  0  0  0
  -40.4604   57.5164   63.7205 H   0  0  0  0  0  0  0  0  0  0  0  0
  -40.4329   55.7901   63.4556 H   0  0  0  0  0  0  0  0  0  0  0  0
  -42.1071   57.7638   61.9188 H   0  0  0  0  0  0  0  0  0  0  0  0
  -42.6924   56.6861   63.1729 H   0  0  0  0  0  0  0  0  0  0  0  0
  -42.0344   54.7551   61.8359 H   0  0  0  0  0  0  0  0  0  0  0  0
  -41.4442   55.8600   60.5774 H   0  0  0  0  0  0  0  0  0  0  0  0
  -44.3075   55.5962   61.4447 H   0  0  0  0  0  0  0  0  0  0  0  0
  -43.5887   54.9233   59.9684 H   0  0  0  0  0  0  0  0  0  0  0  0
  -43.1218   57.1481   59.1515 H   0  0  0  0  0  0  0  0  0  0  0  0
  -43.8249   57.8266   60.6362 H   0  0  0  0  0  0  0  0  0  0  0  0
  -47.6498   55.9952   55.8629 H   0  0  0  0  0  0  0  0  0  0  0  0
  -44.5357   55.6253   56.4798 H   0  0  0  0  0  0  0  0  0  0  0  0
  1  9  1  0  0  0  0
  1 24  1  0  0  0  0
  1 25  1  0  0  0  0
  1 26  1  0  0  0  0
  2  4  2  0  0  0  0
  2 10  1  0  0  0  0
  2 27  1  0  0  0  0
  3  5  2  0  0  0  0
  3 10  1  0  0  0  0
  3 28  1  0  0  0  0
  4 11  1  0  0  0  0
  4 29  1  0  0  0  0
  5 12  1  0  0  0  0
  5 30  1  0  0  0  0
  6  7  2  0  0  0  0
  6  8  1  0  0  0  0
  6 31  1  0  0  0  0
  7 19  1  0  0  0  0
  7 32  1  0  0  0  0
  8 21  2  0  0  0  0
  8 33  1  0  0  0  0
  9 11  1  0  0  0  0
  9 34  1  0  0  0  0
  9 35  1  0  0  0  0
 10 36  1  0  0  0  0
 10 37  1  0  0  0  0
 11 38  1  0  0  0  0
 11 39  1  0  0  0  0
 12 13  1  0  0  0  0
 12 40  1  0  0  0  0
 12 41  1  0  0  0  0
 13 14  1  0  0  0  0
 13 42  1  0  0  0  0
 13 43  1  0  0  0  0
 14 15  1  0  0  0  0
 14 44  1  0  0  0  0
 14 45  1  0  0  0  0
 15 16  1  0  0  0  0
 15 46  1  0  0  0  0
 15 47  1  0  0  0  0
 16 17  1  0  0  0  0
 16 48  1  0  0  0  0
 16 49  1  0  0  0  0
 17 18  1  0  0  0  0
 17 50  1  0  0  0  0
 17 51  1  0  0  0  0
 18 21  1  0  0  0  0
 18 52  1  0  0  0  0
 18 53  1  0  0  0  0
 19 20  2  0  0  0  0
 19 22  1  0  0  0  0
 20 21  1  0  0  0  0
 20 23  1  0  0  0  0
 22 54  1  0  0  0  0
 23 55  1  0  0  0  0
M  END
$$$$