/media/chris/experiments/cd1a-new-docking/inputs/ligands/5j1a_ligand.pdb
 OpenBabel07022311203D

 55 55  0  0  0  0  0  0  0  0999 V2000
  -33.3667   58.3930   63.5671 C   0  0  0  0  0  0  0  0  0  0  0  0
  -34.5815   55.6309   62.5087 C   0  0  0  0  0  0  0  0  0  0  0  0
  -36.6334   55.0749   63.7710 C   0  0  0  0  0  0  0  0  0  0  0  0
  -34.2848   56.6567   61.3886 C   0  0  0  0  0  0  0  0  0  0  0  0
  -37.9593   55.4582   63.0851 C   0  0  0  0  0  0  0  0  0  0  0  0
  -45.0990   57.9645   67.4681 C   0  0  0  0  0  0  0  0  0  0  0  0
  -43.9494   58.2291   68.2242 C   0  0  0  0  0  0  0  0  0  0  0  0
  -45.0992   56.9372   66.5170 C   0  0  0  0  0  0  0  0  0  0  0  0
  -33.6672   58.9290   62.1653 C   0  0  0  0  0  0  0  0  0  0  0  0
  -35.4064   55.9994   63.7504 C   0  0  0  0  0  0  0  0  0  0  0  0
  -34.7711   58.1167   61.4744 C   0  0  0  0  0  0  0  0  0  0  0  0
  -38.1263   56.8452   62.4620 C   0  0  0  0  0  0  0  0  0  0  0  0
  -39.5380   56.9300   61.8820 C   0  0  0  0  0  0  0  0  0  0  0  0
  -40.5750   56.7430   62.9900 C   0  0  0  0  0  0  0  0  0  0  0  0
  -41.9730   56.8130   62.3910 C   0  0  0  0  0  0  0  0  0  0  0  0
  -43.0346   56.6452   63.4882 C   0  0  0  0  0  0  0  0  0  0  0  0
  -42.9202   55.3008   64.2526 C   0  0  0  0  0  0  0  0  0  0  0  0
  -44.0019   55.1282   65.3452 C   0  0  0  0  0  0  0  0  0  0  0  0
  -42.8129   57.4488   68.0124 C   0  0  0  0  0  0  0  0  0  0  0  0
  -42.8225   56.4224   67.0694 C   0  0  0  0  0  0  0  0  0  0  0  0
  -43.9724   56.1298   66.3250 C   0  0  0  0  0  0  0  0  0  0  0  0
  -41.6610   57.6423   68.7003 O   0  0  0  0  0  0  0  0  0  0  0  0
  -41.6900   55.6800   66.9020 O   0  0  0  0  0  0  0  0  0  0  0  0
  -32.5947   58.9823   64.0163 H   0  0  0  0  0  0  0  0  0  0  0  0
  -33.0440   57.3751   63.4982 H   0  0  0  0  0  0  0  0  0  0  0  0
  -34.2512   58.4470   64.1668 H   0  0  0  0  0  0  0  0  0  0  0  0
  -34.2141   54.6708   62.4185 H   0  0  0  0  0  0  0  0  0  0  0  0
  -36.5676   54.1683   64.2597 H   0  0  0  0  0  0  0  0  0  0  0  0
  -33.7465   56.3548   60.5615 H   0  0  0  0  0  0  0  0  0  0  0  0
  -38.7350   54.7786   63.0462 H   0  0  0  0  0  0  0  0  0  0  0  0
  -45.9501   58.5298   67.6132 H   0  0  0  0  0  0  0  0  0  0  0  0
  -43.9436   58.9871   68.9245 H   0  0  0  0  0  0  0  0  0  0  0  0
  -45.9444   56.7726   65.9481 H   0  0  0  0  0  0  0  0  0  0  0  0
  -32.7763   58.8763   61.5750 H   0  0  0  0  0  0  0  0  0  0  0  0
  -34.0046   59.9401   62.2588 H   0  0  0  0  0  0  0  0  0  0  0  0
  -35.7183   57.0214   63.6934 H   0  0  0  0  0  0  0  0  0  0  0  0
  -34.8259   55.8804   64.6414 H   0  0  0  0  0  0  0  0  0  0  0  0
  -35.6746   58.1682   62.0452 H   0  0  0  0  0  0  0  0  0  0  0  0
  -34.9713   58.5059   60.4980 H   0  0  0  0  0  0  0  0  0  0  0  0
  -37.4044   56.9844   61.6846 H   0  0  0  0  0  0  0  0  0  0  0  0
  -37.9789   57.6065   63.1994 H   0  0  0  0  0  0  0  0  0  0  0  0
  -39.6646   56.1636   61.1461 H   0  0  0  0  0  0  0  0  0  0  0  0
  -39.6747   57.8920   61.4340 H   0  0  0  0  0  0  0  0  0  0  0  0
  -40.4604   57.5164   63.7205 H   0  0  0  0  0  0  0  0  0  0  0  0
  -40.4329   55.7901   63.4556 H   0  0  0  0  0  0  0  0  0  0  0  0
  -42.0864   56.0321   61.6683 H   0  0  0  0  0  0  0  0  0  0  0  0
  -42.1035   57.7672   61.9248 H   0  0  0  0  0  0  0  0  0  0  0  0
  -44.0025   56.6968   63.0349 H   0  0  0  0  0  0  0  0  0  0  0  0
  -42.8805   57.4287   64.2005 H   0  0  0  0  0  0  0  0  0  0  0  0
  -41.9573   55.2542   64.7168 H   0  0  0  0  0  0  0  0  0  0  0  0
  -43.0603   54.5159   63.5391 H   0  0  0  0  0  0  0  0  0  0  0  0
  -43.8525   54.1825   65.8230 H   0  0  0  0  0  0  0  0  0  0  0  0
  -44.9529   55.1918   64.8589 H   0  0  0  0  0  0  0  0  0  0  0  0
  -41.6082   58.3208   69.3443 H   0  0  0  0  0  0  0  0  0  0  0  0
  -40.9221   55.8778   67.4012 H   0  0  0  0  0  0  0  0  0  0  0  0
  1  9  1  0  0  0  0
  1 24  1  0  0  0  0
  1 25  1  0  0  0  0
  1 26  1  0  0  0  0
  2  4  2  0  0  0  0
  2 10  1  0  0  0  0
  2 27  1  0  0  0  0
  3  5  2  0  0  0  0
  3 10  1  0  0  0  0
  3 28  1  0  0  0  0
  4 11  1  0  0  0  0
  4 29  1  0  0  0  0
  5 12  1  0  0  0  0
  5 30  1  0  0  0  0
  6  7  2  0  0  0  0
  6  8  1  0  0  0  0
  6 31  1  0  0  0  0
  7 19  1  0  0  0  0
  7 32  1  0  0  0  0
  8 21  2  0  0  0  0
  8 33  1  0  0  0  0
  9 11  1  0  0  0  0
  9 34  1  0  0  0  0
  9 35  1  0  0  0  0
 10 36  1  0  0  0  0
 10 37  1  0  0  0  0
 11 38  1  0  0  0  0
 11 39  1  0  0  0  0
 12 13  1  0  0  0  0
 12 40  1  0  0  0  0
 12 41  1  0  0  0  0
 13 14  1  0  0  0  0
 13 42  1  0  0  0  0
 13 43  1  0  0  0  0
 14 15  1  0  0  0  0
 14 44  1  0  0  0  0
 14 45  1  0  0  0  0
 15 16  1  0  0  0  0
 15 46  1  0  0  0  0
 15 47  1  0  0  0  0
 16 17  1  0  0  0  0
 16 48  1  0  0  0  0
 16 49  1  0  0  0  0
 17 18  1  0  0  0  0
 17 50  1  0  0  0  0
 17 51  1  0  0  0  0
 18 21  1  0  0  0  0
 18 52  1  0  0  0  0
 18 53  1  0  0  0  0
 19 20  2  0  0  0  0
 19 22  1  0  0  0  0
 20 21  1  0  0  0  0
 20 23  1  0  0  0  0
 22 54  1  0  0  0  0
 23 55  1  0  0  0  0
M  END
$$$$