/media/chris/experiments/cd1a-new-docking/inputs/ligands/5j1a_ligand.pdb
 OpenBabel07022311203D

 55 55  0  0  0  0  0  0  0  0999 V2000
  -36.7337   50.1148   60.6517 C   0  0  0  0  0  0  0  0  0  0  0  0
  -35.8617   54.4536   63.0018 C   0  0  0  0  0  0  0  0  0  0  0  0
  -38.1930   54.1643   62.2307 C   0  0  0  0  0  0  0  0  0  0  0  0
  -35.7280   52.9160   63.1149 C   0  0  0  0  0  0  0  0  0  0  0  0
  -39.5143   54.4878   61.5063 C   0  0  0  0  0  0  0  0  0  0  0  0
  -40.6900   63.1312   64.3171 C   0  0  0  0  0  0  0  0  0  0  0  0
  -41.7552   63.9859   64.6304 C   0  0  0  0  0  0  0  0  0  0  0  0
  -40.8785   62.0593   63.4366 C   0  0  0  0  0  0  0  0  0  0  0  0
  -35.8589   51.0935   61.4389 C   0  0  0  0  0  0  0  0  0  0  0  0
  -36.9859   55.1140   62.1903 C   0  0  0  0  0  0  0  0  0  0  0  0
  -36.6957   51.9607   62.3894 C   0  0  0  0  0  0  0  0  0  0  0  0
  -39.6997   55.8424   60.8202 C   0  0  0  0  0  0  0  0  0  0  0  0
  -39.5380   56.9300   61.8820 C   0  0  0  0  0  0  0  0  0  0  0  0
  -40.5750   56.7430   62.9900 C   0  0  0  0  0  0  0  0  0  0  0  0
  -41.9730   56.8130   62.3910 C   0  0  0  0  0  0  0  0  0  0  0  0
  -42.1931   58.1680   61.7021 C   0  0  0  0  0  0  0  0  0  0  0  0
  -42.0339   59.3769   62.6604 C   0  0  0  0  0  0  0  0  0  0  0  0
  -42.2733   60.7388   61.9667 C   0  0  0  0  0  0  0  0  0  0  0  0
  -42.9994   63.7489   64.0463 C   0  0  0  0  0  0  0  0  0  0  0  0
  -43.1782   62.6845   63.1644 C   0  0  0  0  0  0  0  0  0  0  0  0
  -42.1161   61.8378   62.8220 C   0  0  0  0  0  0  0  0  0  0  0  0
  -44.0802   64.5272   64.2993 O   0  0  0  0  0  0  0  0  0  0  0  0
  -44.4111   62.4960   62.6111 O   0  0  0  0  0  0  0  0  0  0  0  0
  -36.1176   49.5291   60.0018 H   0  0  0  0  0  0  0  0  0  0  0  0
  -37.4464   50.6617   60.0704 H   0  0  0  0  0  0  0  0  0  0  0  0
  -37.2485   49.4695   61.3324 H   0  0  0  0  0  0  0  0  0  0  0  0
  -35.1751   55.0529   63.4859 H   0  0  0  0  0  0  0  0  0  0  0  0
  -38.1166   53.2815   62.7597 H   0  0  0  0  0  0  0  0  0  0  0  0
  -34.9700   52.5194   63.6921 H   0  0  0  0  0  0  0  0  0  0  0  0
  -40.2745   53.7902   61.4841 H   0  0  0  0  0  0  0  0  0  0  0  0
  -39.7615   63.2929   64.7377 H   0  0  0  0  0  0  0  0  0  0  0  0
  -41.6217   64.7757   65.2811 H   0  0  0  0  0  0  0  0  0  0  0  0
  -40.0917   61.4218   63.2374 H   0  0  0  0  0  0  0  0  0  0  0  0
  -35.3442   51.7304   60.7503 H   0  0  0  0  0  0  0  0  0  0  0  0
  -35.1668   50.5262   62.0255 H   0  0  0  0  0  0  0  0  0  0  0  0
  -36.6696   55.2623   61.1790 H   0  0  0  0  0  0  0  0  0  0  0  0
  -37.2399   56.0691   62.6005 H   0  0  0  0  0  0  0  0  0  0  0  0
  -37.4158   52.5232   61.8326 H   0  0  0  0  0  0  0  0  0  0  0  0
  -37.2218   51.3501   63.0931 H   0  0  0  0  0  0  0  0  0  0  0  0
  -40.6760   55.8999   60.3860 H   0  0  0  0  0  0  0  0  0  0  0  0
  -38.9765   55.9694   60.0419 H   0  0  0  0  0  0  0  0  0  0  0  0
  -39.6739   57.8897   61.4288 H   0  0  0  0  0  0  0  0  0  0  0  0
  -38.5577   56.8621   62.3055 H   0  0  0  0  0  0  0  0  0  0  0  0
  -40.4604   57.5164   63.7205 H   0  0  0  0  0  0  0  0  0  0  0  0
  -40.4329   55.7901   63.4556 H   0  0  0  0  0  0  0  0  0  0  0  0
  -42.6967   56.6917   63.1697 H   0  0  0  0  0  0  0  0  0  0  0  0
  -42.0793   56.0336   61.6657 H   0  0  0  0  0  0  0  0  0  0  0  0
  -43.1825   58.1853   61.2952 H   0  0  0  0  0  0  0  0  0  0  0  0
  -41.4436   58.2636   60.9445 H   0  0  0  0  0  0  0  0  0  0  0  0
  -41.0405   59.3675   63.0578 H   0  0  0  0  0  0  0  0  0  0  0  0
  -42.7738   59.2754   63.4266 H   0  0  0  0  0  0  0  0  0  0  0  0
  -43.2709   60.7509   61.5798 H   0  0  0  0  0  0  0  0  0  0  0  0
  -41.5375   60.8326   61.1956 H   0  0  0  0  0  0  0  0  0  0  0  0
  -44.0070   65.2542   64.8858 H   0  0  0  0  0  0  0  0  0  0  0  0
  -45.1199   63.0637   62.8418 H   0  0  0  0  0  0  0  0  0  0  0  0
  1  9  1  0  0  0  0
  1 24  1  0  0  0  0
  1 25  1  0  0  0  0
  1 26  1  0  0  0  0
  2  4  2  0  0  0  0
  2 10  1  0  0  0  0
  2 27  1  0  0  0  0
  3  5  2  0  0  0  0
  3 10  1  0  0  0  0
  3 28  1  0  0  0  0
  4 11  1  0  0  0  0
  4 29  1  0  0  0  0
  5 12  1  0  0  0  0
  5 30  1  0  0  0  0
  6  7  2  0  0  0  0
  6  8  1  0  0  0  0
  6 31  1  0  0  0  0
  7 19  1  0  0  0  0
  7 32  1  0  0  0  0
  8 21  2  0  0  0  0
  8 33  1  0  0  0  0
  9 11  1  0  0  0  0
  9 34  1  0  0  0  0
  9 35  1  0  0  0  0
 10 36  1  0  0  0  0
 10 37  1  0  0  0  0
 11 38  1  0  0  0  0
 11 39  1  0  0  0  0
 12 13  1  0  0  0  0
 12 40  1  0  0  0  0
 12 41  1  0  0  0  0
 13 14  1  0  0  0  0
 13 42  1  0  0  0  0
 13 43  1  0  0  0  0
 14 15  1  0  0  0  0
 14 44  1  0  0  0  0
 14 45  1  0  0  0  0
 15 16  1  0  0  0  0
 15 46  1  0  0  0  0
 15 47  1  0  0  0  0
 16 17  1  0  0  0  0
 16 48  1  0  0  0  0
 16 49  1  0  0  0  0
 17 18  1  0  0  0  0
 17 50  1  0  0  0  0
 17 51  1  0  0  0  0
 18 21  1  0  0  0  0
 18 52  1  0  0  0  0
 18 53  1  0  0  0  0
 19 20  2  0  0  0  0
 19 22  1  0  0  0  0
 20 21  1  0  0  0  0
 20 23  1  0  0  0  0
 22 54  1  0  0  0  0
 23 55  1  0  0  0  0
M  END
$$$$