/media/chris/experiments/cd1a-new-docking/inputs/ligands/5j1a_ligand.pdb
 OpenBabel07022311203D

 55 55  0  0  0  0  0  0  0  0999 V2000
  -39.6867   51.2952   61.0518 C   0  0  0  0  0  0  0  0  0  0  0  0
  -37.6145   55.1805   62.3205 C   0  0  0  0  0  0  0  0  0  0  0  0
  -37.2507   55.3925   59.8841 C   0  0  0  0  0  0  0  0  0  0  0  0
  -38.6069   54.3447   63.1638 C   0  0  0  0  0  0  0  0  0  0  0  0
  -38.6290   56.0694   59.7515 C   0  0  0  0  0  0  0  0  0  0  0  0
  -47.4728   56.4147   64.9344 C   0  0  0  0  0  0  0  0  0  0  0  0
  -47.9890   57.4926   64.2031 C   0  0  0  0  0  0  0  0  0  0  0  0
  -46.1592   56.4518   65.4173 C   0  0  0  0  0  0  0  0  0  0  0  0
  -39.3832   52.7456   61.4352 C   0  0  0  0  0  0  0  0  0  0  0  0
  -36.8560   54.5807   61.1275 C   0  0  0  0  0  0  0  0  0  0  0  0
  -38.8626   52.8524   62.8750 C   0  0  0  0  0  0  0  0  0  0  0  0
  -39.6997   55.8424   60.8202 C   0  0  0  0  0  0  0  0  0  0  0  0
  -39.5380   56.9300   61.8820 C   0  0  0  0  0  0  0  0  0  0  0  0
  -40.5750   56.7430   62.9900 C   0  0  0  0  0  0  0  0  0  0  0  0
  -41.9730   56.8130   62.3910 C   0  0  0  0  0  0  0  0  0  0  0  0
  -43.0346   56.6452   63.4882 C   0  0  0  0  0  0  0  0  0  0  0  0
  -42.9688   57.7452   64.5794 C   0  0  0  0  0  0  0  0  0  0  0  0
  -44.0284   57.5628   65.6918 C   0  0  0  0  0  0  0  0  0  0  0  0
  -47.1716   58.5986   63.9711 C   0  0  0  0  0  0  0  0  0  0  0  0
  -45.8672   58.6323   64.4615 C   0  0  0  0  0  0  0  0  0  0  0  0
  -45.3467   57.5733   65.2161 C   0  0  0  0  0  0  0  0  0  0  0  0
  -47.5944   59.6797   63.2711 O   0  0  0  0  0  0  0  0  0  0  0  0
  -45.1069   59.7385   64.2166 O   0  0  0  0  0  0  0  0  0  0  0  0
  -40.0462   51.2603   60.0446 H   0  0  0  0  0  0  0  0  0  0  0  0
  -40.4319   50.9006   61.7104 H   0  0  0  0  0  0  0  0  0  0  0  0
  -38.7940   50.7107   61.1323 H   0  0  0  0  0  0  0  0  0  0  0  0
  -37.4577   56.1702   62.5671 H   0  0  0  0  0  0  0  0  0  0  0  0
  -36.5713   55.4875   59.1132 H   0  0  0  0  0  0  0  0  0  0  0  0
  -39.1115   54.7990   63.9411 H   0  0  0  0  0  0  0  0  0  0  0  0
  -38.8296   56.6762   58.9412 H   0  0  0  0  0  0  0  0  0  0  0  0
  -48.0640   55.5890   65.1182 H   0  0  0  0  0  0  0  0  0  0  0  0
  -48.9558   57.4685   63.8428 H   0  0  0  0  0  0  0  0  0  0  0  0
  -45.7839   55.6386   65.9300 H   0  0  0  0  0  0  0  0  0  0  0  0
  -40.2796   53.3231   61.3463 H   0  0  0  0  0  0  0  0  0  0  0  0
  -38.6244   53.1139   60.7768 H   0  0  0  0  0  0  0  0  0  0  0  0
  -37.1297   53.5545   60.9974 H   0  0  0  0  0  0  0  0  0  0  0  0
  -35.7992   54.6228   61.2891 H   0  0  0  0  0  0  0  0  0  0  0  0
  -39.5918   52.4677   63.5570 H   0  0  0  0  0  0  0  0  0  0  0  0
  -37.9631   52.2853   62.9943 H   0  0  0  0  0  0  0  0  0  0  0  0
  -39.5715   54.8777   61.2648 H   0  0  0  0  0  0  0  0  0  0  0  0
  -40.6766   55.8865   60.3858 H   0  0  0  0  0  0  0  0  0  0  0  0
  -39.6739   57.8897   61.4288 H   0  0  0  0  0  0  0  0  0  0  0  0
  -38.5577   56.8621   62.3055 H   0  0  0  0  0  0  0  0  0  0  0  0
  -40.4604   57.5164   63.7205 H   0  0  0  0  0  0  0  0  0  0  0  0
  -40.4329   55.7901   63.4556 H   0  0  0  0  0  0  0  0  0  0  0  0
  -42.0864   56.0321   61.6683 H   0  0  0  0  0  0  0  0  0  0  0  0
  -42.1035   57.7672   61.9248 H   0  0  0  0  0  0  0  0  0  0  0  0
  -42.8917   55.6937   63.9563 H   0  0  0  0  0  0  0  0  0  0  0  0
  -43.9921   56.7233   63.0171 H   0  0  0  0  0  0  0  0  0  0  0  0
  -43.1244   58.6960   64.1139 H   0  0  0  0  0  0  0  0  0  0  0  0
  -42.0065   57.6774   65.0421 H   0  0  0  0  0  0  0  0  0  0  0  0
  -43.9173   58.3581   66.3989 H   0  0  0  0  0  0  0  0  0  0  0  0
  -43.8604   56.6019   66.1316 H   0  0  0  0  0  0  0  0  0  0  0  0
  -48.4638   59.7013   62.9223 H   0  0  0  0  0  0  0  0  0  0  0  0
  -45.4575   60.4456   63.7115 H   0  0  0  0  0  0  0  0  0  0  0  0
  1  9  1  0  0  0  0
  1 24  1  0  0  0  0
  1 25  1  0  0  0  0
  1 26  1  0  0  0  0
  2  4  2  0  0  0  0
  2 10  1  0  0  0  0
  2 27  1  0  0  0  0
  3  5  2  0  0  0  0
  3 10  1  0  0  0  0
  3 28  1  0  0  0  0
  4 11  1  0  0  0  0
  4 29  1  0  0  0  0
  5 12  1  0  0  0  0
  5 30  1  0  0  0  0
  6  7  2  0  0  0  0
  6  8  1  0  0  0  0
  6 31  1  0  0  0  0
  7 19  1  0  0  0  0
  7 32  1  0  0  0  0
  8 21  2  0  0  0  0
  8 33  1  0  0  0  0
  9 11  1  0  0  0  0
  9 34  1  0  0  0  0
  9 35  1  0  0  0  0
 10 36  1  0  0  0  0
 10 37  1  0  0  0  0
 11 38  1  0  0  0  0
 11 39  1  0  0  0  0
 12 13  1  0  0  0  0
 12 40  1  0  0  0  0
 12 41  1  0  0  0  0
 13 14  1  0  0  0  0
 13 42  1  0  0  0  0
 13 43  1  0  0  0  0
 14 15  1  0  0  0  0
 14 44  1  0  0  0  0
 14 45  1  0  0  0  0
 15 16  1  0  0  0  0
 15 46  1  0  0  0  0
 15 47  1  0  0  0  0
 16 17  1  0  0  0  0
 16 48  1  0  0  0  0
 16 49  1  0  0  0  0
 17 18  1  0  0  0  0
 17 50  1  0  0  0  0
 17 51  1  0  0  0  0
 18 21  1  0  0  0  0
 18 52  1  0  0  0  0
 18 53  1  0  0  0  0
 19 20  2  0  0  0  0
 19 22  1  0  0  0  0
 20 21  1  0  0  0  0
 20 23  1  0  0  0  0
 22 54  1  0  0  0  0
 23 55  1  0  0  0  0
M  END
$$$$