/media/chris/experiments/cd1a-new-docking/inputs/ligands/5j1a_ligand.pdb
 OpenBabel07022311203D

 55 55  0  0  0  0  0  0  0  0999 V2000
  -38.7703   49.3926   61.3136 C   0  0  0  0  0  0  0  0  0  0  0  0
  -36.6350   53.0743   60.2317 C   0  0  0  0  0  0  0  0  0  0  0  0
  -37.4170   54.2914   62.2367 C   0  0  0  0  0  0  0  0  0  0  0  0
  -37.0678   51.7440   60.8933 C   0  0  0  0  0  0  0  0  0  0  0  0
  -37.9593   55.4582   63.0851 C   0  0  0  0  0  0  0  0  0  0  0  0
  -45.0752   54.3732   58.8993 C   0  0  0  0  0  0  0  0  0  0  0  0
  -45.9898   53.3198   59.0310 C   0  0  0  0  0  0  0  0  0  0  0  0
  -43.8235   54.3053   59.5225 C   0  0  0  0  0  0  0  0  0  0  0  0
  -38.2420   50.2382   62.4750 C   0  0  0  0  0  0  0  0  0  0  0  0
  -37.1449   54.4339   60.7313 C   0  0  0  0  0  0  0  0  0  0  0  0
  -38.0638   51.7075   62.0689 C   0  0  0  0  0  0  0  0  0  0  0  0
  -38.1263   56.8452   62.4620 C   0  0  0  0  0  0  0  0  0  0  0  0
  -39.5380   56.9300   61.8820 C   0  0  0  0  0  0  0  0  0  0  0  0
  -40.5750   56.7430   62.9900 C   0  0  0  0  0  0  0  0  0  0  0  0
  -41.9730   56.8130   62.3910 C   0  0  0  0  0  0  0  0  0  0  0  0
  -42.1661   55.6996   61.3507 C   0  0  0  0  0  0  0  0  0  0  0  0
  -42.0124   54.2741   61.9416 C   0  0  0  0  0  0  0  0  0  0  0  0
  -42.1905   53.1560   60.8873 C   0  0  0  0  0  0  0  0  0  0  0  0
  -45.6265   52.2069   59.7890 C   0  0  0  0  0  0  0  0  0  0  0  0
  -44.3755   52.1424   60.4003 C   0  0  0  0  0  0  0  0  0  0  0  0
  -43.4415   53.1763   60.2559 C   0  0  0  0  0  0  0  0  0  0  0  0
  -46.4542   51.1482   59.9671 O   0  0  0  0  0  0  0  0  0  0  0  0
  -44.0607   51.0304   61.1258 O   0  0  0  0  0  0  0  0  0  0  0  0
  -38.8815   48.3776   61.6332 H   0  0  0  0  0  0  0  0  0  0  0  0
  -38.0794   49.4360   60.4977 H   0  0  0  0  0  0  0  0  0  0  0  0
  -39.7192   49.7732   60.9981 H   0  0  0  0  0  0  0  0  0  0  0  0
  -35.9845   53.0469   59.4310 H   0  0  0  0  0  0  0  0  0  0  0  0
  -37.2306   53.3854   62.6944 H   0  0  0  0  0  0  0  0  0  0  0  0
  -36.6788   50.8568   60.5375 H   0  0  0  0  0  0  0  0  0  0  0  0
  -38.2100   55.3036   64.0742 H   0  0  0  0  0  0  0  0  0  0  0  0
  -45.3257   55.2035   58.3399 H   0  0  0  0  0  0  0  0  0  0  0  0
  -46.9147   53.3666   58.5756 H   0  0  0  0  0  0  0  0  0  0  0  0
  -43.1715   55.1010   59.4397 H   0  0  0  0  0  0  0  0  0  0  0  0
  -37.2962   49.8471   62.7871 H   0  0  0  0  0  0  0  0  0  0  0  0
  -38.9551   50.1953   63.2716 H   0  0  0  0  0  0  0  0  0  0  0  0
  -38.0464   54.6982   60.2191 H   0  0  0  0  0  0  0  0  0  0  0  0
  -36.4229   55.2017   60.5467 H   0  0  0  0  0  0  0  0  0  0  0  0
  -39.0034   52.1194   61.7650 H   0  0  0  0  0  0  0  0  0  0  0  0
  -37.6975   52.2849   62.8920 H   0  0  0  0  0  0  0  0  0  0  0  0
  -37.4044   56.9844   61.6846 H   0  0  0  0  0  0  0  0  0  0  0  0
  -37.9789   57.6065   63.1994 H   0  0  0  0  0  0  0  0  0  0  0  0
  -39.6646   56.1636   61.1461 H   0  0  0  0  0  0  0  0  0  0  0  0
  -39.6747   57.8920   61.4340 H   0  0  0  0  0  0  0  0  0  0  0  0
  -40.4604   57.5164   63.7205 H   0  0  0  0  0  0  0  0  0  0  0  0
  -40.4329   55.7901   63.4556 H   0  0  0  0  0  0  0  0  0  0  0  0
  -42.1071   57.7638   61.9188 H   0  0  0  0  0  0  0  0  0  0  0  0
  -42.6924   56.6861   63.1729 H   0  0  0  0  0  0  0  0  0  0  0  0
  -41.4374   55.8271   60.5777 H   0  0  0  0  0  0  0  0  0  0  0  0
  -43.1664   55.7826   60.9800 H   0  0  0  0  0  0  0  0  0  0  0  0
  -42.7492   54.1414   62.7060 H   0  0  0  0  0  0  0  0  0  0  0  0
  -41.0169   54.1941   62.3254 H   0  0  0  0  0  0  0  0  0  0  0  0
  -42.0718   52.2102   61.3734 H   0  0  0  0  0  0  0  0  0  0  0  0
  -41.4530   53.3184   60.1292 H   0  0  0  0  0  0  0  0  0  0  0  0
  -47.3052   51.1477   59.5748 H   0  0  0  0  0  0  0  0  0  0  0  0
  -44.6873   50.3402   61.2209 H   0  0  0  0  0  0  0  0  0  0  0  0
  1  9  1  0  0  0  0
  1 24  1  0  0  0  0
  1 25  1  0  0  0  0
  1 26  1  0  0  0  0
  2  4  2  0  0  0  0
  2 10  1  0  0  0  0
  2 27  1  0  0  0  0
  3  5  2  0  0  0  0
  3 10  1  0  0  0  0
  3 28  1  0  0  0  0
  4 11  1  0  0  0  0
  4 29  1  0  0  0  0
  5 12  1  0  0  0  0
  5 30  1  0  0  0  0
  6  7  2  0  0  0  0
  6  8  1  0  0  0  0
  6 31  1  0  0  0  0
  7 19  1  0  0  0  0
  7 32  1  0  0  0  0
  8 21  2  0  0  0  0
  8 33  1  0  0  0  0
  9 11  1  0  0  0  0
  9 34  1  0  0  0  0
  9 35  1  0  0  0  0
 10 36  1  0  0  0  0
 10 37  1  0  0  0  0
 11 38  1  0  0  0  0
 11 39  1  0  0  0  0
 12 13  1  0  0  0  0
 12 40  1  0  0  0  0
 12 41  1  0  0  0  0
 13 14  1  0  0  0  0
 13 42  1  0  0  0  0
 13 43  1  0  0  0  0
 14 15  1  0  0  0  0
 14 44  1  0  0  0  0
 14 45  1  0  0  0  0
 15 16  1  0  0  0  0
 15 46  1  0  0  0  0
 15 47  1  0  0  0  0
 16 17  1  0  0  0  0
 16 48  1  0  0  0  0
 16 49  1  0  0  0  0
 17 18  1  0  0  0  0
 17 50  1  0  0  0  0
 17 51  1  0  0  0  0
 18 21  1  0  0  0  0
 18 52  1  0  0  0  0
 18 53  1  0  0  0  0
 19 20  2  0  0  0  0
 19 22  1  0  0  0  0
 20 21  1  0  0  0  0
 20 23  1  0  0  0  0
 22 54  1  0  0  0  0
 23 55  1  0  0  0  0
M  END
$$$$