/media/chris/experiments/cd1a-new-docking/inputs/ligands/5j1a_ligand.pdb
 OpenBabel07022311203D

 55 55  0  0  0  0  0  0  0  0999 V2000
  -36.1000   56.7262   63.9290 C   0  0  0  0  0  0  0  0  0  0  0  0
  -37.1990   58.8716   60.6111 C   0  0  0  0  0  0  0  0  0  0  0  0
  -38.3902   60.4119   62.1348 C   0  0  0  0  0  0  0  0  0  0  0  0
  -36.1247   57.9786   61.2767 C   0  0  0  0  0  0  0  0  0  0  0  0
  -39.5120   59.3667   62.2916 C   0  0  0  0  0  0  0  0  0  0  0  0
  -46.5977   60.4871   63.3568 C   0  0  0  0  0  0  0  0  0  0  0  0
  -47.0250   59.6785   62.2952 C   0  0  0  0  0  0  0  0  0  0  0  0
  -45.3288   60.3041   63.9192 C   0  0  0  0  0  0  0  0  0  0  0  0
  -34.8453   57.3386   63.3019 C   0  0  0  0  0  0  0  0  0  0  0  0
  -37.3721   60.3508   60.9857 C   0  0  0  0  0  0  0  0  0  0  0  0
  -35.1913   58.5154   62.3794 C   0  0  0  0  0  0  0  0  0  0  0  0
  -39.7162   58.2956   61.2187 C   0  0  0  0  0  0  0  0  0  0  0  0
  -39.5380   56.9300   61.8820 C   0  0  0  0  0  0  0  0  0  0  0  0
  -40.5750   56.7430   62.9900 C   0  0  0  0  0  0  0  0  0  0  0  0
  -41.9730   56.8130   62.3910 C   0  0  0  0  0  0  0  0  0  0  0  0
  -43.0346   56.6452   63.4882 C   0  0  0  0  0  0  0  0  0  0  0  0
  -42.9688   57.7452   64.5794 C   0  0  0  0  0  0  0  0  0  0  0  0
  -43.1948   59.1702   64.0212 C   0  0  0  0  0  0  0  0  0  0  0  0
  -46.1620   58.6955   61.8114 C   0  0  0  0  0  0  0  0  0  0  0  0
  -44.8969   58.5238   62.3708 C   0  0  0  0  0  0  0  0  0  0  0  0
  -44.4467   59.3418   63.4149 C   0  0  0  0  0  0  0  0  0  0  0  0
  -46.5006   57.8712   60.7898 O   0  0  0  0  0  0  0  0  0  0  0  0
  -44.0839   57.5545   61.8597 O   0  0  0  0  0  0  0  0  0  0  0  0
  -35.8203   55.9114   64.5636 H   0  0  0  0  0  0  0  0  0  0  0  0
  -36.7477   56.3698   63.1555 H   0  0  0  0  0  0  0  0  0  0  0  0
  -36.6093   57.4693   64.5063 H   0  0  0  0  0  0  0  0  0  0  0  0
  -37.8175   58.4609   59.8943 H   0  0  0  0  0  0  0  0  0  0  0  0
  -38.3207   61.1772   62.8236 H   0  0  0  0  0  0  0  0  0  0  0  0
  -36.0306   56.9965   60.9738 H   0  0  0  0  0  0  0  0  0  0  0  0
  -40.1257   59.3894   63.1210 H   0  0  0  0  0  0  0  0  0  0  0  0
  -47.2217   61.2215   63.7260 H   0  0  0  0  0  0  0  0  0  0  0  0
  -47.9605   59.8080   61.8792 H   0  0  0  0  0  0  0  0  0  0  0  0
  -45.0391   60.8886   64.7189 H   0  0  0  0  0  0  0  0  0  0  0  0
  -34.3401   56.5873   62.7316 H   0  0  0  0  0  0  0  0  0  0  0  0
  -34.2212   57.7039   64.0906 H   0  0  0  0  0  0  0  0  0  0  0  0
  -37.7358   60.9021   60.1438 H   0  0  0  0  0  0  0  0  0  0  0  0
  -36.4377   60.7794   61.2826 H   0  0  0  0  0  0  0  0  0  0  0  0
  -35.6869   59.2830   62.9362 H   0  0  0  0  0  0  0  0  0  0  0  0
  -34.3039   58.9339   61.9523 H   0  0  0  0  0  0  0  0  0  0  0  0
  -38.9937   58.4187   60.4392 H   0  0  0  0  0  0  0  0  0  0  0  0
  -40.6929   58.3780   60.7895 H   0  0  0  0  0  0  0  0  0  0  0  0
  -38.5560   56.8665   62.3023 H   0  0  0  0  0  0  0  0  0  0  0  0
  -39.6703   56.1642   61.1465 H   0  0  0  0  0  0  0  0  0  0  0  0
  -40.4604   57.5164   63.7205 H   0  0  0  0  0  0  0  0  0  0  0  0
  -40.4329   55.7901   63.4556 H   0  0  0  0  0  0  0  0  0  0  0  0
  -42.0864   56.0321   61.6683 H   0  0  0  0  0  0  0  0  0  0  0  0
  -42.1035   57.7672   61.9248 H   0  0  0  0  0  0  0  0  0  0  0  0
  -42.8917   55.6937   63.9563 H   0  0  0  0  0  0  0  0  0  0  0  0
  -43.9921   56.7233   63.0171 H   0  0  0  0  0  0  0  0  0  0  0  0
  -42.0041   57.7095   65.0408 H   0  0  0  0  0  0  0  0  0  0  0  0
  -43.7553   57.5483   65.2777 H   0  0  0  0  0  0  0  0  0  0  0  0
  -42.4361   59.3734   63.2946 H   0  0  0  0  0  0  0  0  0  0  0  0
  -43.1526   59.8436   64.8516 H   0  0  0  0  0  0  0  0  0  0  0  0
  -47.3410   57.9500   60.3830 H   0  0  0  0  0  0  0  0  0  0  0  0
  -44.3875   57.0086   61.1613 H   0  0  0  0  0  0  0  0  0  0  0  0
  1  9  1  0  0  0  0
  1 24  1  0  0  0  0
  1 25  1  0  0  0  0
  1 26  1  0  0  0  0
  2  4  2  0  0  0  0
  2 10  1  0  0  0  0
  2 27  1  0  0  0  0
  3  5  2  0  0  0  0
  3 10  1  0  0  0  0
  3 28  1  0  0  0  0
  4 11  1  0  0  0  0
  4 29  1  0  0  0  0
  5 12  1  0  0  0  0
  5 30  1  0  0  0  0
  6  7  2  0  0  0  0
  6  8  1  0  0  0  0
  6 31  1  0  0  0  0
  7 19  1  0  0  0  0
  7 32  1  0  0  0  0
  8 21  2  0  0  0  0
  8 33  1  0  0  0  0
  9 11  1  0  0  0  0
  9 34  1  0  0  0  0
  9 35  1  0  0  0  0
 10 36  1  0  0  0  0
 10 37  1  0  0  0  0
 11 38  1  0  0  0  0
 11 39  1  0  0  0  0
 12 13  1  0  0  0  0
 12 40  1  0  0  0  0
 12 41  1  0  0  0  0
 13 14  1  0  0  0  0
 13 42  1  0  0  0  0
 13 43  1  0  0  0  0
 14 15  1  0  0  0  0
 14 44  1  0  0  0  0
 14 45  1  0  0  0  0
 15 16  1  0  0  0  0
 15 46  1  0  0  0  0
 15 47  1  0  0  0  0
 16 17  1  0  0  0  0
 16 48  1  0  0  0  0
 16 49  1  0  0  0  0
 17 18  1  0  0  0  0
 17 50  1  0  0  0  0
 17 51  1  0  0  0  0
 18 21  1  0  0  0  0
 18 52  1  0  0  0  0
 18 53  1  0  0  0  0
 19 20  2  0  0  0  0
 19 22  1  0  0  0  0
 20 21  1  0  0  0  0
 20 23  1  0  0  0  0
 22 54  1  0  0  0  0
 23 55  1  0  0  0  0
M  END
$$$$