/media/chris/experiments/cd1a-new-docking/inputs/ligands/5j1a_ligand.pdb
 OpenBabel07022311203D

 55 55  0  0  0  0  0  0  0  0999 V2000
  -31.9764   57.9465   64.7529 C   0  0  0  0  0  0  0  0  0  0  0  0
  -35.4975   56.9018   64.9897 C   0  0  0  0  0  0  0  0  0  0  0  0
  -36.6334   55.0749   63.7710 C   0  0  0  0  0  0  0  0  0  0  0  0
  -34.3979   56.9111   66.0785 C   0  0  0  0  0  0  0  0  0  0  0  0
  -37.9593   55.4582   63.0851 C   0  0  0  0  0  0  0  0  0  0  0  0
  -44.2549   61.5735   66.6395 C   0  0  0  0  0  0  0  0  0  0  0  0
  -43.0608   62.2512   66.9189 C   0  0  0  0  0  0  0  0  0  0  0  0
  -44.2835   60.5587   65.6754 C   0  0  0  0  0  0  0  0  0  0  0  0
  -32.3911   56.4745   64.6893 C   0  0  0  0  0  0  0  0  0  0  0  0
  -35.4064   55.9994   63.7504 C   0  0  0  0  0  0  0  0  0  0  0  0
  -33.1315   56.0405   65.9617 C   0  0  0  0  0  0  0  0  0  0  0  0
  -38.1263   56.8452   62.4620 C   0  0  0  0  0  0  0  0  0  0  0  0
  -39.5380   56.9300   61.8820 C   0  0  0  0  0  0  0  0  0  0  0  0
  -40.5750   56.7430   62.9900 C   0  0  0  0  0  0  0  0  0  0  0  0
  -41.9730   56.8130   62.3910 C   0  0  0  0  0  0  0  0  0  0  0  0
  -43.0346   56.6452   63.4882 C   0  0  0  0  0  0  0  0  0  0  0  0
  -42.9688   57.7452   64.5794 C   0  0  0  0  0  0  0  0  0  0  0  0
  -43.1948   59.1702   64.0212 C   0  0  0  0  0  0  0  0  0  0  0  0
  -41.9071   61.8923   66.2223 C   0  0  0  0  0  0  0  0  0  0  0  0
  -41.9408   60.8756   65.2693 C   0  0  0  0  0  0  0  0  0  0  0  0
  -43.1214   60.1722   64.9983 C   0  0  0  0  0  0  0  0  0  0  0  0
  -40.7138   62.5004   66.4320 O   0  0  0  0  0  0  0  0  0  0  0  0
  -40.7858   60.5534   64.6183 O   0  0  0  0  0  0  0  0  0  0  0  0
  -31.4646   58.2121   63.8516 H   0  0  0  0  0  0  0  0  0  0  0  0
  -31.3271   58.0983   65.5897 H   0  0  0  0  0  0  0  0  0  0  0  0
  -32.8476   58.5581   64.8619 H   0  0  0  0  0  0  0  0  0  0  0  0
  -36.3163   57.5203   65.0996 H   0  0  0  0  0  0  0  0  0  0  0  0
  -36.5676   54.1683   64.2597 H   0  0  0  0  0  0  0  0  0  0  0  0
  -34.5158   57.5169   66.9056 H   0  0  0  0  0  0  0  0  0  0  0  0
  -38.7350   54.7786   63.0462 H   0  0  0  0  0  0  0  0  0  0  0  0
  -45.1180   61.8237   67.1471 H   0  0  0  0  0  0  0  0  0  0  0  0
  -43.0355   63.0017   67.6268 H   0  0  0  0  0  0  0  0  0  0  0  0
  -45.1764   60.0880   65.4606 H   0  0  0  0  0  0  0  0  0  0  0  0
  -31.5146   55.8715   64.5748 H   0  0  0  0  0  0  0  0  0  0  0  0
  -33.0527   56.3489   63.8578 H   0  0  0  0  0  0  0  0  0  0  0  0
  -34.5087   55.4182   63.7853 H   0  0  0  0  0  0  0  0  0  0  0  0
  -35.3866   56.5846   62.8549 H   0  0  0  0  0  0  0  0  0  0  0  0
  -33.4028   55.0078   65.8925 H   0  0  0  0  0  0  0  0  0  0  0  0
  -32.5077   56.1641   66.8222 H   0  0  0  0  0  0  0  0  0  0  0  0
  -37.4044   56.9844   61.6846 H   0  0  0  0  0  0  0  0  0  0  0  0
  -37.9789   57.6065   63.1994 H   0  0  0  0  0  0  0  0  0  0  0  0
  -39.6646   56.1636   61.1461 H   0  0  0  0  0  0  0  0  0  0  0  0
  -39.6747   57.8920   61.4340 H   0  0  0  0  0  0  0  0  0  0  0  0
  -40.4604   57.5164   63.7205 H   0  0  0  0  0  0  0  0  0  0  0  0
  -40.4329   55.7901   63.4556 H   0  0  0  0  0  0  0  0  0  0  0  0
  -42.0864   56.0321   61.6683 H   0  0  0  0  0  0  0  0  0  0  0  0
  -42.1035   57.7672   61.9248 H   0  0  0  0  0  0  0  0  0  0  0  0
  -42.8917   55.6937   63.9563 H   0  0  0  0  0  0  0  0  0  0  0  0
  -43.9921   56.7233   63.0171 H   0  0  0  0  0  0  0  0  0  0  0  0
  -42.0041   57.7095   65.0408 H   0  0  0  0  0  0  0  0  0  0  0  0
  -43.7553   57.5483   65.2777 H   0  0  0  0  0  0  0  0  0  0  0  0
  -44.1644   59.2074   63.5703 H   0  0  0  0  0  0  0  0  0  0  0  0
  -42.4118   59.3599   63.3169 H   0  0  0  0  0  0  0  0  0  0  0  0
  -40.6435   63.1893   67.0632 H   0  0  0  0  0  0  0  0  0  0  0  0
  -39.9975   61.0256   64.8014 H   0  0  0  0  0  0  0  0  0  0  0  0
  1  9  1  0  0  0  0
  1 24  1  0  0  0  0
  1 25  1  0  0  0  0
  1 26  1  0  0  0  0
  2  4  2  0  0  0  0
  2 10  1  0  0  0  0
  2 27  1  0  0  0  0
  3  5  2  0  0  0  0
  3 10  1  0  0  0  0
  3 28  1  0  0  0  0
  4 11  1  0  0  0  0
  4 29  1  0  0  0  0
  5 12  1  0  0  0  0
  5 30  1  0  0  0  0
  6  7  2  0  0  0  0
  6  8  1  0  0  0  0
  6 31  1  0  0  0  0
  7 19  1  0  0  0  0
  7 32  1  0  0  0  0
  8 21  2  0  0  0  0
  8 33  1  0  0  0  0
  9 11  1  0  0  0  0
  9 34  1  0  0  0  0
  9 35  1  0  0  0  0
 10 36  1  0  0  0  0
 10 37  1  0  0  0  0
 11 38  1  0  0  0  0
 11 39  1  0  0  0  0
 12 13  1  0  0  0  0
 12 40  1  0  0  0  0
 12 41  1  0  0  0  0
 13 14  1  0  0  0  0
 13 42  1  0  0  0  0
 13 43  1  0  0  0  0
 14 15  1  0  0  0  0
 14 44  1  0  0  0  0
 14 45  1  0  0  0  0
 15 16  1  0  0  0  0
 15 46  1  0  0  0  0
 15 47  1  0  0  0  0
 16 17  1  0  0  0  0
 16 48  1  0  0  0  0
 16 49  1  0  0  0  0
 17 18  1  0  0  0  0
 17 50  1  0  0  0  0
 17 51  1  0  0  0  0
 18 21  1  0  0  0  0
 18 52  1  0  0  0  0
 18 53  1  0  0  0  0
 19 20  2  0  0  0  0
 19 22  1  0  0  0  0
 20 21  1  0  0  0  0
 20 23  1  0  0  0  0
 22 54  1  0  0  0  0
 23 55  1  0  0  0  0
M  END
$$$$