/media/chris/experiments/cd1a-new-docking/inputs/ligands/5j1a_ligand.pdb
 OpenBabel07022311203D

 55 55  0  0  0  0  0  0  0  0999 V2000
  -33.1215   53.5089   59.8155 C   0  0  0  0  0  0  0  0  0  0  0  0
  -35.6963   54.1268   62.3717 C   0  0  0  0  0  0  0  0  0  0  0  0
  -35.7516   56.3807   61.3569 C   0  0  0  0  0  0  0  0  0  0  0  0
  -35.8385   53.5082   60.9604 C   0  0  0  0  0  0  0  0  0  0  0  0
  -37.1362   57.0564   61.3152 C   0  0  0  0  0  0  0  0  0  0  0  0
  -43.1316   59.3450   68.8183 C   0  0  0  0  0  0  0  0  0  0  0  0
  -43.9237   60.4980   68.7383 C   0  0  0  0  0  0  0  0  0  0  0  0
  -43.1802   58.3815   67.8037 C   0  0  0  0  0  0  0  0  0  0  0  0
  -34.0461   54.7272   59.7566 C   0  0  0  0  0  0  0  0  0  0  0  0
  -35.2671   55.5866   62.5797 C   0  0  0  0  0  0  0  0  0  0  0  0
  -35.5224   54.3134   59.6848 C   0  0  0  0  0  0  0  0  0  0  0  0
  -38.1263   56.8452   62.4620 C   0  0  0  0  0  0  0  0  0  0  0  0
  -39.5380   56.9300   61.8820 C   0  0  0  0  0  0  0  0  0  0  0  0
  -40.5750   56.7430   62.9900 C   0  0  0  0  0  0  0  0  0  0  0  0
  -41.9730   56.8130   62.3910 C   0  0  0  0  0  0  0  0  0  0  0  0
  -43.0346   56.6452   63.4882 C   0  0  0  0  0  0  0  0  0  0  0  0
  -42.9688   57.7452   64.5794 C   0  0  0  0  0  0  0  0  0  0  0  0
  -44.0284   57.5628   65.6918 C   0  0  0  0  0  0  0  0  0  0  0  0
  -44.7540   60.6658   67.6303 C   0  0  0  0  0  0  0  0  0  0  0  0
  -44.7917   59.7063   66.6199 C   0  0  0  0  0  0  0  0  0  0  0  0
  -43.9862   58.5616   66.6740 C   0  0  0  0  0  0  0  0  0  0  0  0
  -45.5524   61.7509   67.4792 O   0  0  0  0  0  0  0  0  0  0  0  0
  -45.6133   59.9168   65.5511 O   0  0  0  0  0  0  0  0  0  0  0  0
  -32.1038   53.8356   59.8646 H   0  0  0  0  0  0  0  0  0  0  0  0
  -33.2624   52.9114   58.9391 H   0  0  0  0  0  0  0  0  0  0  0  0
  -33.3519   52.9280   60.6841 H   0  0  0  0  0  0  0  0  0  0  0  0
  -35.8958   53.5410   63.1976 H   0  0  0  0  0  0  0  0  0  0  0  0
  -35.1300   56.4644   60.5374 H   0  0  0  0  0  0  0  0  0  0  0  0
  -36.1538   52.5297   60.8709 H   0  0  0  0  0  0  0  0  0  0  0  0
  -37.3955   57.6517   60.5131 H   0  0  0  0  0  0  0  0  0  0  0  0
  -42.5091   59.2052   69.6294 H   0  0  0  0  0  0  0  0  0  0  0  0
  -43.8932   61.2096   69.4851 H   0  0  0  0  0  0  0  0  0  0  0  0
  -42.6122   57.5243   67.8903 H   0  0  0  0  0  0  0  0  0  0  0  0
  -33.8048   55.3046   58.8886 H   0  0  0  0  0  0  0  0  0  0  0  0
  -33.9022   55.3000   60.6488 H   0  0  0  0  0  0  0  0  0  0  0  0
  -34.2018   55.6479   62.6582 H   0  0  0  0  0  0  0  0  0  0  0  0
  -35.6880   55.9817   63.4806 H   0  0  0  0  0  0  0  0  0  0  0  0
  -36.1440   55.1830   59.6378 H   0  0  0  0  0  0  0  0  0  0  0  0
  -35.7072   53.7242   58.8109 H   0  0  0  0  0  0  0  0  0  0  0  0
  -37.9914   57.6045   63.2038 H   0  0  0  0  0  0  0  0  0  0  0  0
  -37.9678   55.8923   62.9220 H   0  0  0  0  0  0  0  0  0  0  0  0
  -39.6646   56.1636   61.1461 H   0  0  0  0  0  0  0  0  0  0  0  0
  -39.6747   57.8920   61.4340 H   0  0  0  0  0  0  0  0  0  0  0  0
  -40.4604   57.5164   63.7205 H   0  0  0  0  0  0  0  0  0  0  0  0
  -40.4329   55.7901   63.4556 H   0  0  0  0  0  0  0  0  0  0  0  0
  -42.0864   56.0321   61.6683 H   0  0  0  0  0  0  0  0  0  0  0  0
  -42.1035   57.7672   61.9248 H   0  0  0  0  0  0  0  0  0  0  0  0
  -42.8917   55.6937   63.9563 H   0  0  0  0  0  0  0  0  0  0  0  0
  -43.9921   56.7233   63.0171 H   0  0  0  0  0  0  0  0  0  0  0  0
  -43.1244   58.6960   64.1139 H   0  0  0  0  0  0  0  0  0  0  0  0
  -42.0065   57.6774   65.0421 H   0  0  0  0  0  0  0  0  0  0  0  0
  -43.8643   56.6167   66.1638 H   0  0  0  0  0  0  0  0  0  0  0  0
  -44.9889   57.6222   65.2240 H   0  0  0  0  0  0  0  0  0  0  0  0
  -45.5601   62.4217   68.1333 H   0  0  0  0  0  0  0  0  0  0  0  0
  -46.1511   60.6833   65.5173 H   0  0  0  0  0  0  0  0  0  0  0  0
  1  9  1  0  0  0  0
  1 24  1  0  0  0  0
  1 25  1  0  0  0  0
  1 26  1  0  0  0  0
  2  4  2  0  0  0  0
  2 10  1  0  0  0  0
  2 27  1  0  0  0  0
  3  5  2  0  0  0  0
  3 10  1  0  0  0  0
  3 28  1  0  0  0  0
  4 11  1  0  0  0  0
  4 29  1  0  0  0  0
  5 12  1  0  0  0  0
  5 30  1  0  0  0  0
  6  7  2  0  0  0  0
  6  8  1  0  0  0  0
  6 31  1  0  0  0  0
  7 19  1  0  0  0  0
  7 32  1  0  0  0  0
  8 21  2  0  0  0  0
  8 33  1  0  0  0  0
  9 11  1  0  0  0  0
  9 34  1  0  0  0  0
  9 35  1  0  0  0  0
 10 36  1  0  0  0  0
 10 37  1  0  0  0  0
 11 38  1  0  0  0  0
 11 39  1  0  0  0  0
 12 13  1  0  0  0  0
 12 40  1  0  0  0  0
 12 41  1  0  0  0  0
 13 14  1  0  0  0  0
 13 42  1  0  0  0  0
 13 43  1  0  0  0  0
 14 15  1  0  0  0  0
 14 44  1  0  0  0  0
 14 45  1  0  0  0  0
 15 16  1  0  0  0  0
 15 46  1  0  0  0  0
 15 47  1  0  0  0  0
 16 17  1  0  0  0  0
 16 48  1  0  0  0  0
 16 49  1  0  0  0  0
 17 18  1  0  0  0  0
 17 50  1  0  0  0  0
 17 51  1  0  0  0  0
 18 21  1  0  0  0  0
 18 52  1  0  0  0  0
 18 53  1  0  0  0  0
 19 20  2  0  0  0  0
 19 22  1  0  0  0  0
 20 21  1  0  0  0  0
 20 23  1  0  0  0  0
 22 54  1  0  0  0  0
 23 55  1  0  0  0  0
M  END
$$$$