/media/chris/experiments/cd1a-new-docking/inputs/ligands/5j1a_ligand.pdb
 OpenBabel07022311203D

 55 55  0  0  0  0  0  0  0  0999 V2000
  -31.5697   60.2928   61.1014 C   0  0  0  0  0  0  0  0  0  0  0  0
  -33.7155   56.1237   62.8909 C   0  0  0  0  0  0  0  0  0  0  0  0
  -35.6198   57.0099   61.5866 C   0  0  0  0  0  0  0  0  0  0  0  0
  -32.3710   56.8627   62.6885 C   0  0  0  0  0  0  0  0  0  0  0  0
  -37.1362   57.0564   61.3152 C   0  0  0  0  0  0  0  0  0  0  0  0
  -43.2209   52.3365   62.8500 C   0  0  0  0  0  0  0  0  0  0  0  0
  -44.2969   51.6351   63.4100 C   0  0  0  0  0  0  0  0  0  0  0  0
  -43.4014   53.6356   62.3604 C   0  0  0  0  0  0  0  0  0  0  0  0
  -31.7082   58.7765   61.2580 C   0  0  0  0  0  0  0  0  0  0  0  0
  -35.0481   56.8780   63.0066 C   0  0  0  0  0  0  0  0  0  0  0  0
  -32.2904   58.4007   62.6275 C   0  0  0  0  0  0  0  0  0  0  0  0
  -38.1263   56.8452   62.4620 C   0  0  0  0  0  0  0  0  0  0  0  0
  -39.5380   56.9300   61.8820 C   0  0  0  0  0  0  0  0  0  0  0  0
  -40.5750   56.7430   62.9900 C   0  0  0  0  0  0  0  0  0  0  0  0
  -41.9730   56.8130   62.3910 C   0  0  0  0  0  0  0  0  0  0  0  0
  -43.0346   56.6452   63.4882 C   0  0  0  0  0  0  0  0  0  0  0  0
  -44.4877   56.6885   62.9483 C   0  0  0  0  0  0  0  0  0  0  0  0
  -44.7906   55.5673   61.9262 C   0  0  0  0  0  0  0  0  0  0  0  0
  -45.5436   52.2573   63.4720 C   0  0  0  0  0  0  0  0  0  0  0  0
  -45.7145   53.5539   62.9898 C   0  0  0  0  0  0  0  0  0  0  0  0
  -44.6421   54.2764   62.4512 C   0  0  0  0  0  0  0  0  0  0  0  0
  -46.6346   51.6464   63.9959 O   0  0  0  0  0  0  0  0  0  0  0  0
  -46.9505   54.1251   63.0785 O   0  0  0  0  0  0  0  0  0  0  0  0
  -31.1620   60.5160   60.1376 H   0  0  0  0  0  0  0  0  0  0  0  0
  -30.9181   60.6717   61.8608 H   0  0  0  0  0  0  0  0  0  0  0  0
  -32.5322   60.7505   61.1962 H   0  0  0  0  0  0  0  0  0  0  0  0
  -33.7166   55.0934   62.9499 H   0  0  0  0  0  0  0  0  0  0  0  0
  -34.9675   57.0693   60.7891 H   0  0  0  0  0  0  0  0  0  0  0  0
  -31.5045   56.3106   62.5916 H   0  0  0  0  0  0  0  0  0  0  0  0
  -37.4839   57.2301   60.3592 H   0  0  0  0  0  0  0  0  0  0  0  0
  -42.2905   51.8931   62.7982 H   0  0  0  0  0  0  0  0  0  0  0  0
  -44.1693   50.6763   63.7697 H   0  0  0  0  0  0  0  0  0  0  0  0
  -42.6061   54.1289   61.9252 H   0  0  0  0  0  0  0  0  0  0  0  0
  -30.7425   58.3272   61.1562 H   0  0  0  0  0  0  0  0  0  0  0  0
  -32.3765   58.4216   60.5015 H   0  0  0  0  0  0  0  0  0  0  0  0
  -34.8850   57.8480   63.4278 H   0  0  0  0  0  0  0  0  0  0  0  0
  -35.7286   56.3517   63.6429 H   0  0  0  0  0  0  0  0  0  0  0  0
  -31.6547   58.7647   63.4074 H   0  0  0  0  0  0  0  0  0  0  0  0
  -33.2596   58.8350   62.7577 H   0  0  0  0  0  0  0  0  0  0  0  0
  -37.9914   57.6045   63.2038 H   0  0  0  0  0  0  0  0  0  0  0  0
  -37.9678   55.8923   62.9220 H   0  0  0  0  0  0  0  0  0  0  0  0
  -39.6646   56.1636   61.1461 H   0  0  0  0  0  0  0  0  0  0  0  0
  -39.6747   57.8920   61.4340 H   0  0  0  0  0  0  0  0  0  0  0  0
  -40.4604   57.5164   63.7205 H   0  0  0  0  0  0  0  0  0  0  0  0
  -40.4329   55.7901   63.4556 H   0  0  0  0  0  0  0  0  0  0  0  0
  -42.0864   56.0321   61.6683 H   0  0  0  0  0  0  0  0  0  0  0  0
  -42.1035   57.7672   61.9248 H   0  0  0  0  0  0  0  0  0  0  0  0
  -42.9137   57.4339   64.2011 H   0  0  0  0  0  0  0  0  0  0  0  0
  -42.8880   55.6799   63.9258 H   0  0  0  0  0  0  0  0  0  0  0  0
  -44.6460   57.6340   62.4730 H   0  0  0  0  0  0  0  0  0  0  0  0
  -45.1418   56.5440   63.7826 H   0  0  0  0  0  0  0  0  0  0  0  0
  -44.1221   55.6748   61.0977 H   0  0  0  0  0  0  0  0  0  0  0  0
  -45.8154   55.6734   61.6376 H   0  0  0  0  0  0  0  0  0  0  0  0
  -46.5670   50.7744   64.3322 H   0  0  0  0  0  0  0  0  0  0  0  0
  -47.6661   53.6396   63.4392 H   0  0  0  0  0  0  0  0  0  0  0  0
  1  9  1  0  0  0  0
  1 24  1  0  0  0  0
  1 25  1  0  0  0  0
  1 26  1  0  0  0  0
  2  4  2  0  0  0  0
  2 10  1  0  0  0  0
  2 27  1  0  0  0  0
  3  5  2  0  0  0  0
  3 10  1  0  0  0  0
  3 28  1  0  0  0  0
  4 11  1  0  0  0  0
  4 29  1  0  0  0  0
  5 12  1  0  0  0  0
  5 30  1  0  0  0  0
  6  7  2  0  0  0  0
  6  8  1  0  0  0  0
  6 31  1  0  0  0  0
  7 19  1  0  0  0  0
  7 32  1  0  0  0  0
  8 21  2  0  0  0  0
  8 33  1  0  0  0  0
  9 11  1  0  0  0  0
  9 34  1  0  0  0  0
  9 35  1  0  0  0  0
 10 36  1  0  0  0  0
 10 37  1  0  0  0  0
 11 38  1  0  0  0  0
 11 39  1  0  0  0  0
 12 13  1  0  0  0  0
 12 40  1  0  0  0  0
 12 41  1  0  0  0  0
 13 14  1  0  0  0  0
 13 42  1  0  0  0  0
 13 43  1  0  0  0  0
 14 15  1  0  0  0  0
 14 44  1  0  0  0  0
 14 45  1  0  0  0  0
 15 16  1  0  0  0  0
 15 46  1  0  0  0  0
 15 47  1  0  0  0  0
 16 17  1  0  0  0  0
 16 48  1  0  0  0  0
 16 49  1  0  0  0  0
 17 18  1  0  0  0  0
 17 50  1  0  0  0  0
 17 51  1  0  0  0  0
 18 21  1  0  0  0  0
 18 52  1  0  0  0  0
 18 53  1  0  0  0  0
 19 20  2  0  0  0  0
 19 22  1  0  0  0  0
 20 21  1  0  0  0  0
 20 23  1  0  0  0  0
 22 54  1  0  0  0  0
 23 55  1  0  0  0  0
M  END
$$$$