/media/chris/experiments/cd1a-new-docking/inputs/ligands/5j1a_ligand.pdb
 OpenBabel07022311203D

 55 55  0  0  0  0  0  0  0  0999 V2000
  -38.8595   54.4923   57.3996 C   0  0  0  0  0  0  0  0  0  0  0  0
  -36.9215   53.6334   61.2231 C   0  0  0  0  0  0  0  0  0  0  0  0
  -36.1152   55.9563   60.9649 C   0  0  0  0  0  0  0  0  0  0  0  0
  -37.2962   53.6163   59.7218 C   0  0  0  0  0  0  0  0  0  0  0  0
  -37.1362   57.0564   61.3152 C   0  0  0  0  0  0  0  0  0  0  0  0
  -46.4036   55.3397   62.3106 C   0  0  0  0  0  0  0  0  0  0  0  0
  -47.0891   54.2097   61.8455 C   0  0  0  0  0  0  0  0  0  0  0  0
  -45.0655   55.2407   62.7100 C   0  0  0  0  0  0  0  0  0  0  0  0
  -37.8719   55.4161   58.1165 C   0  0  0  0  0  0  0  0  0  0  0  0
  -35.9655   54.6821   61.8102 C   0  0  0  0  0  0  0  0  0  0  0  0
  -36.7022   54.6302   58.7245 C   0  0  0  0  0  0  0  0  0  0  0  0
  -38.1263   56.8452   62.4620 C   0  0  0  0  0  0  0  0  0  0  0  0
  -39.5380   56.9300   61.8820 C   0  0  0  0  0  0  0  0  0  0  0  0
  -40.5750   56.7430   62.9900 C   0  0  0  0  0  0  0  0  0  0  0  0
  -41.9730   56.8130   62.3910 C   0  0  0  0  0  0  0  0  0  0  0  0
  -42.1661   55.6996   61.3507 C   0  0  0  0  0  0  0  0  0  0  0  0
  -42.0124   54.2741   61.9416 C   0  0  0  0  0  0  0  0  0  0  0  0
  -43.0412   53.9624   63.0542 C   0  0  0  0  0  0  0  0  0  0  0  0
  -46.4121   52.9918   61.7860 C   0  0  0  0  0  0  0  0  0  0  0  0
  -45.0774   52.9019   62.1778 C   0  0  0  0  0  0  0  0  0  0  0  0
  -44.3722   54.0284   62.6201 C   0  0  0  0  0  0  0  0  0  0  0  0
  -47.0041   51.8526   61.3508 O   0  0  0  0  0  0  0  0  0  0  0  0
  -44.4535   51.6913   62.0949 O   0  0  0  0  0  0  0  0  0  0  0  0
  -39.6588   55.0738   56.9898 H   0  0  0  0  0  0  0  0  0  0  0  0
  -39.2551   53.7834   58.0967 H   0  0  0  0  0  0  0  0  0  0  0  0
  -38.3550   53.9738   56.6112 H   0  0  0  0  0  0  0  0  0  0  0  0
  -37.3259   52.9188   61.8483 H   0  0  0  0  0  0  0  0  0  0  0  0
  -35.5128   56.0795   60.1360 H   0  0  0  0  0  0  0  0  0  0  0  0
  -37.9623   52.9064   59.3789 H   0  0  0  0  0  0  0  0  0  0  0  0
  -37.1519   57.9361   60.7758 H   0  0  0  0  0  0  0  0  0  0  0  0
  -46.8877   56.2499   62.3590 H   0  0  0  0  0  0  0  0  0  0  0  0
  -48.0764   54.2773   61.5526 H   0  0  0  0  0  0  0  0  0  0  0  0
  -44.5823   56.0756   63.0768 H   0  0  0  0  0  0  0  0  0  0  0  0
  -38.3862   55.9340   58.8989 H   0  0  0  0  0  0  0  0  0  0  0  0
  -37.4758   56.1039   57.3988 H   0  0  0  0  0  0  0  0  0  0  0  0
  -34.9574   54.3267   61.7625 H   0  0  0  0  0  0  0  0  0  0  0  0
  -36.1990   54.8770   62.8361 H   0  0  0  0  0  0  0  0  0  0  0  0
  -36.1680   54.1148   57.9537 H   0  0  0  0  0  0  0  0  0  0  0  0
  -36.0200   55.2902   59.2184 H   0  0  0  0  0  0  0  0  0  0  0  0
  -37.9914   57.6045   63.2038 H   0  0  0  0  0  0  0  0  0  0  0  0
  -37.9678   55.8923   62.9220 H   0  0  0  0  0  0  0  0  0  0  0  0
  -39.6646   56.1636   61.1461 H   0  0  0  0  0  0  0  0  0  0  0  0
  -39.6747   57.8920   61.4340 H   0  0  0  0  0  0  0  0  0  0  0  0
  -40.4604   57.5164   63.7205 H   0  0  0  0  0  0  0  0  0  0  0  0
  -40.4329   55.7901   63.4556 H   0  0  0  0  0  0  0  0  0  0  0  0
  -42.1071   57.7638   61.9188 H   0  0  0  0  0  0  0  0  0  0  0  0
  -42.6924   56.6861   63.1729 H   0  0  0  0  0  0  0  0  0  0  0  0
  -41.4374   55.8271   60.5777 H   0  0  0  0  0  0  0  0  0  0  0  0
  -43.1664   55.7826   60.9800 H   0  0  0  0  0  0  0  0  0  0  0  0
  -41.0287   54.1800   62.3518 H   0  0  0  0  0  0  0  0  0  0  0  0
  -42.1837   53.5795   61.1459 H   0  0  0  0  0  0  0  0  0  0  0  0
  -42.9080   54.6694   63.8462 H   0  0  0  0  0  0  0  0  0  0  0  0
  -42.8641   52.9567   63.3735 H   0  0  0  0  0  0  0  0  0  0  0  0
  -47.9002   51.8653   61.0771 H   0  0  0  0  0  0  0  0  0  0  0  0
  -44.9275   50.9392   61.7987 H   0  0  0  0  0  0  0  0  0  0  0  0
  1  9  1  0  0  0  0
  1 24  1  0  0  0  0
  1 25  1  0  0  0  0
  1 26  1  0  0  0  0
  2  4  2  0  0  0  0
  2 10  1  0  0  0  0
  2 27  1  0  0  0  0
  3  5  2  0  0  0  0
  3 10  1  0  0  0  0
  3 28  1  0  0  0  0
  4 11  1  0  0  0  0
  4 29  1  0  0  0  0
  5 12  1  0  0  0  0
  5 30  1  0  0  0  0
  6  7  2  0  0  0  0
  6  8  1  0  0  0  0
  6 31  1  0  0  0  0
  7 19  1  0  0  0  0
  7 32  1  0  0  0  0
  8 21  2  0  0  0  0
  8 33  1  0  0  0  0
  9 11  1  0  0  0  0
  9 34  1  0  0  0  0
  9 35  1  0  0  0  0
 10 36  1  0  0  0  0
 10 37  1  0  0  0  0
 11 38  1  0  0  0  0
 11 39  1  0  0  0  0
 12 13  1  0  0  0  0
 12 40  1  0  0  0  0
 12 41  1  0  0  0  0
 13 14  1  0  0  0  0
 13 42  1  0  0  0  0
 13 43  1  0  0  0  0
 14 15  1  0  0  0  0
 14 44  1  0  0  0  0
 14 45  1  0  0  0  0
 15 16  1  0  0  0  0
 15 46  1  0  0  0  0
 15 47  1  0  0  0  0
 16 17  1  0  0  0  0
 16 48  1  0  0  0  0
 16 49  1  0  0  0  0
 17 18  1  0  0  0  0
 17 50  1  0  0  0  0
 17 51  1  0  0  0  0
 18 21  1  0  0  0  0
 18 52  1  0  0  0  0
 18 53  1  0  0  0  0
 19 20  2  0  0  0  0
 19 22  1  0  0  0  0
 20 21  1  0  0  0  0
 20 23  1  0  0  0  0
 22 54  1  0  0  0  0
 23 55  1  0  0  0  0
M  END
$$$$