/media/chris/experiments/cd1a-new-docking/inputs/ligands/5j1a_ligand.pdb
 OpenBabel07022311203D

 55 55  0  0  0  0  0  0  0  0999 V2000
  -45.6839   54.2710   58.8795 C   0  0  0  0  0  0  0  0  0  0  0  0
  -43.0693   53.3666   62.8039 C   0  0  0  0  0  0  0  0  0  0  0  0
  -40.7311   53.7492   62.0973 C   0  0  0  0  0  0  0  0  0  0  0  0
  -44.5719   53.2798   62.4442 C   0  0  0  0  0  0  0  0  0  0  0  0
  -39.5143   54.4878   61.5063 C   0  0  0  0  0  0  0  0  0  0  0  0
  -40.5315   60.3087   58.7207 C   0  0  0  0  0  0  0  0  0  0  0  0
  -39.6085   61.3627   58.7392 C   0  0  0  0  0  0  0  0  0  0  0  0
  -41.4041   60.1135   59.7979 C   0  0  0  0  0  0  0  0  0  0  0  0
  -45.0968   53.4449   60.0265 C   0  0  0  0  0  0  0  0  0  0  0  0
  -42.1309   54.3816   62.1349 C   0  0  0  0  0  0  0  0  0  0  0  0
  -45.2031   54.1840   61.3674 C   0  0  0  0  0  0  0  0  0  0  0  0
  -39.6997   55.8424   60.8202 C   0  0  0  0  0  0  0  0  0  0  0  0
  -39.5380   56.9300   61.8820 C   0  0  0  0  0  0  0  0  0  0  0  0
  -40.5750   56.7430   62.9900 C   0  0  0  0  0  0  0  0  0  0  0  0
  -41.9730   56.8130   62.3910 C   0  0  0  0  0  0  0  0  0  0  0  0
  -42.1931   58.1680   61.7021 C   0  0  0  0  0  0  0  0  0  0  0  0
  -42.0339   59.3769   62.6604 C   0  0  0  0  0  0  0  0  0  0  0  0
  -42.2733   60.7388   61.9667 C   0  0  0  0  0  0  0  0  0  0  0  0
  -39.5808   62.2107   59.8462 C   0  0  0  0  0  0  0  0  0  0  0  0
  -40.4578   62.0155   60.9118 C   0  0  0  0  0  0  0  0  0  0  0  0
  -41.4031   60.9819   60.8954 C   0  0  0  0  0  0  0  0  0  0  0  0
  -38.7169   63.2510   59.9423 O   0  0  0  0  0  0  0  0  0  0  0  0
  -40.3997   62.8748   61.9701 O   0  0  0  0  0  0  0  0  0  0  0  0
  -45.5923   53.7253   57.9637 H   0  0  0  0  0  0  0  0  0  0  0  0
  -45.1528   55.1962   58.7980 H   0  0  0  0  0  0  0  0  0  0  0  0
  -46.7172   54.4689   59.0749 H   0  0  0  0  0  0  0  0  0  0  0  0
  -42.6866   52.7235   63.5144 H   0  0  0  0  0  0  0  0  0  0  0  0
  -40.6014   52.7997   62.4801 H   0  0  0  0  0  0  0  0  0  0  0  0
  -45.1677   52.5977   62.9389 H   0  0  0  0  0  0  0  0  0  0  0  0
  -38.5738   54.0683   61.5734 H   0  0  0  0  0  0  0  0  0  0  0  0
  -40.5682   59.6728   57.9087 H   0  0  0  0  0  0  0  0  0  0  0  0
  -38.9614   61.5088   57.9487 H   0  0  0  0  0  0  0  0  0  0  0  0
  -42.0590   59.3161   59.7824 H   0  0  0  0  0  0  0  0  0  0  0  0
  -44.0658   53.2473   59.8198 H   0  0  0  0  0  0  0  0  0  0  0  0
  -45.6530   52.5339   60.1016 H   0  0  0  0  0  0  0  0  0  0  0  0
  -42.1083   55.2889   62.7015 H   0  0  0  0  0  0  0  0  0  0  0  0
  -42.4680   54.6172   61.1471 H   0  0  0  0  0  0  0  0  0  0  0  0
  -44.6756   55.1135   61.3154 H   0  0  0  0  0  0  0  0  0  0  0  0
  -46.2256   54.3940   61.6027 H   0  0  0  0  0  0  0  0  0  0  0  0
  -40.6760   55.8999   60.3860 H   0  0  0  0  0  0  0  0  0  0  0  0
  -38.9765   55.9694   60.0419 H   0  0  0  0  0  0  0  0  0  0  0  0
  -39.6739   57.8897   61.4288 H   0  0  0  0  0  0  0  0  0  0  0  0
  -38.5577   56.8621   62.3055 H   0  0  0  0  0  0  0  0  0  0  0  0
  -40.4604   57.5164   63.7205 H   0  0  0  0  0  0  0  0  0  0  0  0
  -40.4329   55.7901   63.4556 H   0  0  0  0  0  0  0  0  0  0  0  0
  -42.6967   56.6917   63.1697 H   0  0  0  0  0  0  0  0  0  0  0  0
  -42.0793   56.0336   61.6657 H   0  0  0  0  0  0  0  0  0  0  0  0
  -43.1825   58.1853   61.2952 H   0  0  0  0  0  0  0  0  0  0  0  0
  -41.4436   58.2636   60.9445 H   0  0  0  0  0  0  0  0  0  0  0  0
  -41.0405   59.3675   63.0578 H   0  0  0  0  0  0  0  0  0  0  0  0
  -42.7738   59.2754   63.4266 H   0  0  0  0  0  0  0  0  0  0  0  0
  -42.1434   61.5153   62.6913 H   0  0  0  0  0  0  0  0  0  0  0  0
  -43.2657   60.7180   61.5671 H   0  0  0  0  0  0  0  0  0  0  0  0
  -38.1089   63.4206   59.2498 H   0  0  0  0  0  0  0  0  0  0  0  0
  -39.7665   63.5654   61.9786 H   0  0  0  0  0  0  0  0  0  0  0  0
  1  9  1  0  0  0  0
  1 24  1  0  0  0  0
  1 25  1  0  0  0  0
  1 26  1  0  0  0  0
  2  4  2  0  0  0  0
  2 10  1  0  0  0  0
  2 27  1  0  0  0  0
  3  5  2  0  0  0  0
  3 10  1  0  0  0  0
  3 28  1  0  0  0  0
  4 11  1  0  0  0  0
  4 29  1  0  0  0  0
  5 12  1  0  0  0  0
  5 30  1  0  0  0  0
  6  7  2  0  0  0  0
  6  8  1  0  0  0  0
  6 31  1  0  0  0  0
  7 19  1  0  0  0  0
  7 32  1  0  0  0  0
  8 21  2  0  0  0  0
  8 33  1  0  0  0  0
  9 11  1  0  0  0  0
  9 34  1  0  0  0  0
  9 35  1  0  0  0  0
 10 36  1  0  0  0  0
 10 37  1  0  0  0  0
 11 38  1  0  0  0  0
 11 39  1  0  0  0  0
 12 13  1  0  0  0  0
 12 40  1  0  0  0  0
 12 41  1  0  0  0  0
 13 14  1  0  0  0  0
 13 42  1  0  0  0  0
 13 43  1  0  0  0  0
 14 15  1  0  0  0  0
 14 44  1  0  0  0  0
 14 45  1  0  0  0  0
 15 16  1  0  0  0  0
 15 46  1  0  0  0  0
 15 47  1  0  0  0  0
 16 17  1  0  0  0  0
 16 48  1  0  0  0  0
 16 49  1  0  0  0  0
 17 18  1  0  0  0  0
 17 50  1  0  0  0  0
 17 51  1  0  0  0  0
 18 21  1  0  0  0  0
 18 52  1  0  0  0  0
 18 53  1  0  0  0  0
 19 20  2  0  0  0  0
 19 22  1  0  0  0  0
 20 21  1  0  0  0  0
 20 23  1  0  0  0  0
 22 54  1  0  0  0  0
 23 55  1  0  0  0  0
M  END
$$$$