/media/chris/experiments/cd1a-new-docking/inputs/ligands/5j1a_ligand.pdb
 OpenBabel07022311203D

 55 55  0  0  0  0  0  0  0  0999 V2000
  -35.3788   49.5068   60.9519 C   0  0  0  0  0  0  0  0  0  0  0  0
  -34.8513   53.8412   61.1700 C   0  0  0  0  0  0  0  0  0  0  0  0
  -36.1152   55.9563   60.9649 C   0  0  0  0  0  0  0  0  0  0  0  0
  -35.1076   52.4106   60.6386 C   0  0  0  0  0  0  0  0  0  0  0  0
  -37.1362   57.0564   61.3152 C   0  0  0  0  0  0  0  0  0  0  0  0
  -46.5326   56.6394   57.3811 C   0  0  0  0  0  0  0  0  0  0  0  0
  -47.6442   57.1849   58.0368 C   0  0  0  0  0  0  0  0  0  0  0  0
  -45.2857   56.5995   58.0164 C   0  0  0  0  0  0  0  0  0  0  0  0
  -36.3916   50.4913   61.5415 C   0  0  0  0  0  0  0  0  0  0  0  0
  -35.9655   54.6821   61.8102 C   0  0  0  0  0  0  0  0  0  0  0  0
  -36.5053   51.7631   60.6899 C   0  0  0  0  0  0  0  0  0  0  0  0
  -38.1263   56.8452   62.4620 C   0  0  0  0  0  0  0  0  0  0  0  0
  -39.5380   56.9300   61.8820 C   0  0  0  0  0  0  0  0  0  0  0  0
  -40.5750   56.7430   62.9900 C   0  0  0  0  0  0  0  0  0  0  0  0
  -41.9730   56.8130   62.3910 C   0  0  0  0  0  0  0  0  0  0  0  0
  -42.1661   55.6996   61.3507 C   0  0  0  0  0  0  0  0  0  0  0  0
  -43.5658   55.7191   60.6834 C   0  0  0  0  0  0  0  0  0  0  0  0
  -43.8575   57.0325   59.9198 C   0  0  0  0  0  0  0  0  0  0  0  0
  -47.4832   57.6809   59.3304 C   0  0  0  0  0  0  0  0  0  0  0  0
  -46.2406   57.6308   59.9601 C   0  0  0  0  0  0  0  0  0  0  0  0
  -45.1269   57.0649   59.3266 C   0  0  0  0  0  0  0  0  0  0  0  0
  -48.5072   58.2264   60.0314 O   0  0  0  0  0  0  0  0  0  0  0  0
  -46.1323   58.1209   61.2289 O   0  0  0  0  0  0  0  0  0  0  0  0
  -35.3268   48.6353   61.5704 H   0  0  0  0  0  0  0  0  0  0  0  0
  -34.4154   49.9703   60.9070 H   0  0  0  0  0  0  0  0  0  0  0  0
  -35.6860   49.2266   59.9660 H   0  0  0  0  0  0  0  0  0  0  0  0
  -33.9036   54.2421   61.0919 H   0  0  0  0  0  0  0  0  0  0  0  0
  -35.5128   56.0795   60.1360 H   0  0  0  0  0  0  0  0  0  0  0  0
  -34.3210   51.8754   60.2388 H   0  0  0  0  0  0  0  0  0  0  0  0
  -37.1519   57.9361   60.7758 H   0  0  0  0  0  0  0  0  0  0  0  0
  -46.6335   56.2652   56.4246 H   0  0  0  0  0  0  0  0  0  0  0  0
  -48.5647   57.2190   57.5715 H   0  0  0  0  0  0  0  0  0  0  0  0
  -44.4701   56.2205   57.5102 H   0  0  0  0  0  0  0  0  0  0  0  0
  -36.0793   50.7612   62.5287 H   0  0  0  0  0  0  0  0  0  0  0  0
  -37.3494   50.0146   61.5606 H   0  0  0  0  0  0  0  0  0  0  0  0
  -35.7008   54.9376   62.8149 H   0  0  0  0  0  0  0  0  0  0  0  0
  -36.8849   54.1354   61.8396 H   0  0  0  0  0  0  0  0  0  0  0  0
  -36.8291   51.5133   59.7012 H   0  0  0  0  0  0  0  0  0  0  0  0
  -37.2190   52.4385   61.1135 H   0  0  0  0  0  0  0  0  0  0  0  0
  -37.9914   57.6045   63.2038 H   0  0  0  0  0  0  0  0  0  0  0  0
  -37.9678   55.8923   62.9220 H   0  0  0  0  0  0  0  0  0  0  0  0
  -39.6646   56.1636   61.1461 H   0  0  0  0  0  0  0  0  0  0  0  0
  -39.6747   57.8920   61.4340 H   0  0  0  0  0  0  0  0  0  0  0  0
  -40.4604   57.5164   63.7205 H   0  0  0  0  0  0  0  0  0  0  0  0
  -40.4329   55.7901   63.4556 H   0  0  0  0  0  0  0  0  0  0  0  0
  -42.1071   57.7638   61.9188 H   0  0  0  0  0  0  0  0  0  0  0  0
  -42.6924   56.6861   63.1729 H   0  0  0  0  0  0  0  0  0  0  0  0
  -42.0344   54.7551   61.8359 H   0  0  0  0  0  0  0  0  0  0  0  0
  -41.4442   55.8600   60.5774 H   0  0  0  0  0  0  0  0  0  0  0  0
  -44.3075   55.5962   61.4447 H   0  0  0  0  0  0  0  0  0  0  0  0
  -43.5887   54.9233   59.9684 H   0  0  0  0  0  0  0  0  0  0  0  0
  -43.1218   57.1481   59.1515 H   0  0  0  0  0  0  0  0  0  0  0  0
  -43.8249   57.8266   60.6362 H   0  0  0  0  0  0  0  0  0  0  0  0
  -49.3605   58.2811   59.6482 H   0  0  0  0  0  0  0  0  0  0  0  0
  -46.8789   58.4989   61.6504 H   0  0  0  0  0  0  0  0  0  0  0  0
  1  9  1  0  0  0  0
  1 24  1  0  0  0  0
  1 25  1  0  0  0  0
  1 26  1  0  0  0  0
  2  4  2  0  0  0  0
  2 10  1  0  0  0  0
  2 27  1  0  0  0  0
  3  5  2  0  0  0  0
  3 10  1  0  0  0  0
  3 28  1  0  0  0  0
  4 11  1  0  0  0  0
  4 29  1  0  0  0  0
  5 12  1  0  0  0  0
  5 30  1  0  0  0  0
  6  7  2  0  0  0  0
  6  8  1  0  0  0  0
  6 31  1  0  0  0  0
  7 19  1  0  0  0  0
  7 32  1  0  0  0  0
  8 21  2  0  0  0  0
  8 33  1  0  0  0  0
  9 11  1  0  0  0  0
  9 34  1  0  0  0  0
  9 35  1  0  0  0  0
 10 36  1  0  0  0  0
 10 37  1  0  0  0  0
 11 38  1  0  0  0  0
 11 39  1  0  0  0  0
 12 13  1  0  0  0  0
 12 40  1  0  0  0  0
 12 41  1  0  0  0  0
 13 14  1  0  0  0  0
 13 42  1  0  0  0  0
 13 43  1  0  0  0  0
 14 15  1  0  0  0  0
 14 44  1  0  0  0  0
 14 45  1  0  0  0  0
 15 16  1  0  0  0  0
 15 46  1  0  0  0  0
 15 47  1  0  0  0  0
 16 17  1  0  0  0  0
 16 48  1  0  0  0  0
 16 49  1  0  0  0  0
 17 18  1  0  0  0  0
 17 50  1  0  0  0  0
 17 51  1  0  0  0  0
 18 21  1  0  0  0  0
 18 52  1  0  0  0  0
 18 53  1  0  0  0  0
 19 20  2  0  0  0  0
 19 22  1  0  0  0  0
 20 21  1  0  0  0  0
 20 23  1  0  0  0  0
 22 54  1  0  0  0  0
 23 55  1  0  0  0  0
M  END
$$$$