/media/chris/experiments/cd1a-new-docking/inputs/ligands/5j1a_ligand.pdb
 OpenBabel07022311203D

 55 55  0  0  0  0  0  0  0  0999 V2000
  -38.1172   51.6789   61.9190 C   0  0  0  0  0  0  0  0  0  0  0  0
  -39.8466   53.4391   59.8853 C   0  0  0  0  0  0  0  0  0  0  0  0
  -38.0506   54.8721   58.9722 C   0  0  0  0  0  0  0  0  0  0  0  0
  -40.5560   52.1476   60.3581 C   0  0  0  0  0  0  0  0  0  0  0  0
  -38.6290   56.0694   59.7515 C   0  0  0  0  0  0  0  0  0  0  0  0
  -42.9399   53.6894   60.4239 C   0  0  0  0  0  0  0  0  0  0  0  0
  -43.8283   53.2500   61.4143 C   0  0  0  0  0  0  0  0  0  0  0  0
  -42.9854   55.0127   59.9693 C   0  0  0  0  0  0  0  0  0  0  0  0
  -39.1459   50.5761   61.6581 C   0  0  0  0  0  0  0  0  0  0  0  0
  -38.4222   53.4205   59.3118 C   0  0  0  0  0  0  0  0  0  0  0  0
  -39.8580   50.7742   60.3130 C   0  0  0  0  0  0  0  0  0  0  0  0
  -39.6997   55.8424   60.8202 C   0  0  0  0  0  0  0  0  0  0  0  0
  -39.5380   56.9300   61.8820 C   0  0  0  0  0  0  0  0  0  0  0  0
  -40.5750   56.7430   62.9900 C   0  0  0  0  0  0  0  0  0  0  0  0
  -41.9730   56.8130   62.3910 C   0  0  0  0  0  0  0  0  0  0  0  0
  -42.1931   58.1680   61.7021 C   0  0  0  0  0  0  0  0  0  0  0  0
  -43.6063   58.3189   61.0817 C   0  0  0  0  0  0  0  0  0  0  0  0
  -43.9207   57.2428   60.0156 C   0  0  0  0  0  0  0  0  0  0  0  0
  -44.7512   54.1556   61.9371 C   0  0  0  0  0  0  0  0  0  0  0  0
  -44.7859   55.4739   61.4856 C   0  0  0  0  0  0  0  0  0  0  0  0
  -43.8869   55.9337   60.5148 C   0  0  0  0  0  0  0  0  0  0  0  0
  -45.6456   53.8090   62.8950 O   0  0  0  0  0  0  0  0  0  0  0  0
  -45.7007   56.3263   62.0316 O   0  0  0  0  0  0  0  0  0  0  0  0
  -37.6426   51.5080   62.8626 H   0  0  0  0  0  0  0  0  0  0  0  0
  -38.6089   52.6291   61.9340 H   0  0  0  0  0  0  0  0  0  0  0  0
  -37.3808   51.6707   61.1427 H   0  0  0  0  0  0  0  0  0  0  0  0
  -40.3456   54.3396   59.9574 H   0  0  0  0  0  0  0  0  0  0  0  0
  -37.3927   55.0512   58.1975 H   0  0  0  0  0  0  0  0  0  0  0  0
  -41.5230   52.2076   60.7135 H   0  0  0  0  0  0  0  0  0  0  0  0
  -38.2937   57.0249   59.5523 H   0  0  0  0  0  0  0  0  0  0  0  0
  -42.2483   53.0340   60.0274 H   0  0  0  0  0  0  0  0  0  0  0  0
  -43.8002   52.2747   61.7506 H   0  0  0  0  0  0  0  0  0  0  0  0
  -42.3436   55.3141   59.2194 H   0  0  0  0  0  0  0  0  0  0  0  0
  -39.8744   50.5883   62.4417 H   0  0  0  0  0  0  0  0  0  0  0  0
  -38.6313   49.6384   61.6293 H   0  0  0  0  0  0  0  0  0  0  0  0
  -38.3904   52.8176   58.4284 H   0  0  0  0  0  0  0  0  0  0  0  0
  -37.7333   53.0073   60.0187 H   0  0  0  0  0  0  0  0  0  0  0  0
  -39.1452   50.7523   59.5152 H   0  0  0  0  0  0  0  0  0  0  0  0
  -40.5706   49.9940   60.1445 H   0  0  0  0  0  0  0  0  0  0  0  0
  -39.5715   54.8777   61.2648 H   0  0  0  0  0  0  0  0  0  0  0  0
  -40.6766   55.8865   60.3858 H   0  0  0  0  0  0  0  0  0  0  0  0
  -39.6739   57.8897   61.4288 H   0  0  0  0  0  0  0  0  0  0  0  0
  -38.5577   56.8621   62.3055 H   0  0  0  0  0  0  0  0  0  0  0  0
  -40.4604   57.5164   63.7205 H   0  0  0  0  0  0  0  0  0  0  0  0
  -40.4329   55.7901   63.4556 H   0  0  0  0  0  0  0  0  0  0  0  0
  -42.6967   56.6917   63.1697 H   0  0  0  0  0  0  0  0  0  0  0  0
  -42.0793   56.0336   61.6657 H   0  0  0  0  0  0  0  0  0  0  0  0
  -41.4671   58.2749   60.9233 H   0  0  0  0  0  0  0  0  0  0  0  0
  -42.0942   58.9245   62.4524 H   0  0  0  0  0  0  0  0  0  0  0  0
  -43.6752   59.2830   60.6226 H   0  0  0  0  0  0  0  0  0  0  0  0
  -44.3160   58.1996   61.8734 H   0  0  0  0  0  0  0  0  0  0  0  0
  -43.1993   57.3241   59.2295 H   0  0  0  0  0  0  0  0  0  0  0  0
  -44.9179   57.4226   59.6719 H   0  0  0  0  0  0  0  0  0  0  0  0
  -45.6591   52.9336   63.2288 H   0  0  0  0  0  0  0  0  0  0  0  0
  -46.3010   56.0162   62.6808 H   0  0  0  0  0  0  0  0  0  0  0  0
  1  9  1  0  0  0  0
  1 24  1  0  0  0  0
  1 25  1  0  0  0  0
  1 26  1  0  0  0  0
  2  4  2  0  0  0  0
  2 10  1  0  0  0  0
  2 27  1  0  0  0  0
  3  5  2  0  0  0  0
  3 10  1  0  0  0  0
  3 28  1  0  0  0  0
  4 11  1  0  0  0  0
  4 29  1  0  0  0  0
  5 12  1  0  0  0  0
  5 30  1  0  0  0  0
  6  7  2  0  0  0  0
  6  8  1  0  0  0  0
  6 31  1  0  0  0  0
  7 19  1  0  0  0  0
  7 32  1  0  0  0  0
  8 21  2  0  0  0  0
  8 33  1  0  0  0  0
  9 11  1  0  0  0  0
  9 34  1  0  0  0  0
  9 35  1  0  0  0  0
 10 36  1  0  0  0  0
 10 37  1  0  0  0  0
 11 38  1  0  0  0  0
 11 39  1  0  0  0  0
 12 13  1  0  0  0  0
 12 40  1  0  0  0  0
 12 41  1  0  0  0  0
 13 14  1  0  0  0  0
 13 42  1  0  0  0  0
 13 43  1  0  0  0  0
 14 15  1  0  0  0  0
 14 44  1  0  0  0  0
 14 45  1  0  0  0  0
 15 16  1  0  0  0  0
 15 46  1  0  0  0  0
 15 47  1  0  0  0  0
 16 17  1  0  0  0  0
 16 48  1  0  0  0  0
 16 49  1  0  0  0  0
 17 18  1  0  0  0  0
 17 50  1  0  0  0  0
 17 51  1  0  0  0  0
 18 21  1  0  0  0  0
 18 52  1  0  0  0  0
 18 53  1  0  0  0  0
 19 20  2  0  0  0  0
 19 22  1  0  0  0  0
 20 21  1  0  0  0  0
 20 23  1  0  0  0  0
 22 54  1  0  0  0  0
 23 55  1  0  0  0  0
M  END
$$$$