/media/chris/experiments/cd1a-new-docking/inputs/ligands/5j1a_ligand.pdb
 OpenBabel07022311203D

 55 55  0  0  0  0  0  0  0  0999 V2000
  -40.7227   60.0584   64.2293 C   0  0  0  0  0  0  0  0  0  0  0  0
  -36.3372   59.9935   62.8987 C   0  0  0  0  0  0  0  0  0  0  0  0
  -36.6457   58.4764   60.9709 C   0  0  0  0  0  0  0  0  0  0  0  0
  -36.9062   60.6562   64.1761 C   0  0  0  0  0  0  0  0  0  0  0  0
  -37.1362   57.0564   61.3152 C   0  0  0  0  0  0  0  0  0  0  0  0
  -44.1201   53.8655   66.1951 C   0  0  0  0  0  0  0  0  0  0  0  0
  -45.1311   52.8957   66.1735 C   0  0  0  0  0  0  0  0  0  0  0  0
  -44.2738   55.0636   65.4873 C   0  0  0  0  0  0  0  0  0  0  0  0
  -39.2219   59.7704   64.1444 C   0  0  0  0  0  0  0  0  0  0  0  0
  -37.2105   59.7258   61.6641 C   0  0  0  0  0  0  0  0  0  0  0  0
  -38.3911   61.0523   64.2935 C   0  0  0  0  0  0  0  0  0  0  0  0
  -38.1263   56.8452   62.4620 C   0  0  0  0  0  0  0  0  0  0  0  0
  -39.5380   56.9300   61.8820 C   0  0  0  0  0  0  0  0  0  0  0  0
  -40.5750   56.7430   62.9900 C   0  0  0  0  0  0  0  0  0  0  0  0
  -41.9730   56.8130   62.3910 C   0  0  0  0  0  0  0  0  0  0  0  0
  -43.0346   56.6452   63.4882 C   0  0  0  0  0  0  0  0  0  0  0  0
  -44.4877   56.6885   62.9483 C   0  0  0  0  0  0  0  0  0  0  0  0
  -45.5541   56.5365   64.0586 C   0  0  0  0  0  0  0  0  0  0  0  0
  -46.2890   53.1501   65.4388 C   0  0  0  0  0  0  0  0  0  0  0  0
  -46.4389   54.3484   64.7428 C   0  0  0  0  0  0  0  0  0  0  0  0
  -45.4477   55.3376   64.7765 C   0  0  0  0  0  0  0  0  0  0  0  0
  -47.3115   52.2631   65.3650 O   0  0  0  0  0  0  0  0  0  0  0  0
  -47.5922   54.5568   64.0440 O   0  0  0  0  0  0  0  0  0  0  0  0
  -41.2680   59.1441   64.1215 H   0  0  0  0  0  0  0  0  0  0  0  0
  -41.0011   60.7339   63.4476 H   0  0  0  0  0  0  0  0  0  0  0  0
  -40.9484   60.4985   65.1781 H   0  0  0  0  0  0  0  0  0  0  0  0
  -35.3415   59.7234   62.8757 H   0  0  0  0  0  0  0  0  0  0  0  0
  -35.9145   58.5916   60.2518 H   0  0  0  0  0  0  0  0  0  0  0  0
  -36.2740   60.8380   64.9713 H   0  0  0  0  0  0  0  0  0  0  0  0
  -36.7965   56.2476   60.7717 H   0  0  0  0  0  0  0  0  0  0  0  0
  -43.2575   53.6958   66.7356 H   0  0  0  0  0  0  0  0  0  0  0  0
  -45.0211   52.0099   66.6915 H   0  0  0  0  0  0  0  0  0  0  0  0
  -43.5087   55.7562   65.4898 H   0  0  0  0  0  0  0  0  0  0  0  0
  -39.0068   59.3257   63.1953 H   0  0  0  0  0  0  0  0  0  0  0  0
  -38.9624   59.1086   64.9442 H   0  0  0  0  0  0  0  0  0  0  0  0
  -37.1718   60.5632   60.9991 H   0  0  0  0  0  0  0  0  0  0  0  0
  -38.2315   59.5750   61.9463 H   0  0  0  0  0  0  0  0  0  0  0  0
  -38.6468   61.7457   63.5198 H   0  0  0  0  0  0  0  0  0  0  0  0
  -38.5838   61.5195   65.2366 H   0  0  0  0  0  0  0  0  0  0  0  0
  -37.9914   57.6045   63.2038 H   0  0  0  0  0  0  0  0  0  0  0  0
  -37.9678   55.8923   62.9220 H   0  0  0  0  0  0  0  0  0  0  0  0
  -39.6646   56.1636   61.1461 H   0  0  0  0  0  0  0  0  0  0  0  0
  -39.6747   57.8920   61.4340 H   0  0  0  0  0  0  0  0  0  0  0  0
  -40.4604   57.5164   63.7205 H   0  0  0  0  0  0  0  0  0  0  0  0
  -40.4329   55.7901   63.4556 H   0  0  0  0  0  0  0  0  0  0  0  0
  -42.0864   56.0321   61.6683 H   0  0  0  0  0  0  0  0  0  0  0  0
  -42.1035   57.7672   61.9248 H   0  0  0  0  0  0  0  0  0  0  0  0
  -42.9137   57.4339   64.2011 H   0  0  0  0  0  0  0  0  0  0  0  0
  -42.8880   55.6799   63.9258 H   0  0  0  0  0  0  0  0  0  0  0  0
  -44.6131   55.8921   62.2447 H   0  0  0  0  0  0  0  0  0  0  0  0
  -44.6315   57.6484   62.4978 H   0  0  0  0  0  0  0  0  0  0  0  0
  -46.5226   56.5749   63.6054 H   0  0  0  0  0  0  0  0  0  0  0  0
  -45.3995   57.3345   64.7545 H   0  0  0  0  0  0  0  0  0  0  0  0
  -47.2548   51.4442   65.8169 H   0  0  0  0  0  0  0  0  0  0  0  0
  -48.2536   53.8935   64.0230 H   0  0  0  0  0  0  0  0  0  0  0  0
  1  9  1  0  0  0  0
  1 24  1  0  0  0  0
  1 25  1  0  0  0  0
  1 26  1  0  0  0  0
  2  4  2  0  0  0  0
  2 10  1  0  0  0  0
  2 27  1  0  0  0  0
  3  5  2  0  0  0  0
  3 10  1  0  0  0  0
  3 28  1  0  0  0  0
  4 11  1  0  0  0  0
  4 29  1  0  0  0  0
  5 12  1  0  0  0  0
  5 30  1  0  0  0  0
  6  7  2  0  0  0  0
  6  8  1  0  0  0  0
  6 31  1  0  0  0  0
  7 19  1  0  0  0  0
  7 32  1  0  0  0  0
  8 21  2  0  0  0  0
  8 33  1  0  0  0  0
  9 11  1  0  0  0  0
  9 34  1  0  0  0  0
  9 35  1  0  0  0  0
 10 36  1  0  0  0  0
 10 37  1  0  0  0  0
 11 38  1  0  0  0  0
 11 39  1  0  0  0  0
 12 13  1  0  0  0  0
 12 40  1  0  0  0  0
 12 41  1  0  0  0  0
 13 14  1  0  0  0  0
 13 42  1  0  0  0  0
 13 43  1  0  0  0  0
 14 15  1  0  0  0  0
 14 44  1  0  0  0  0
 14 45  1  0  0  0  0
 15 16  1  0  0  0  0
 15 46  1  0  0  0  0
 15 47  1  0  0  0  0
 16 17  1  0  0  0  0
 16 48  1  0  0  0  0
 16 49  1  0  0  0  0
 17 18  1  0  0  0  0
 17 50  1  0  0  0  0
 17 51  1  0  0  0  0
 18 21  1  0  0  0  0
 18 52  1  0  0  0  0
 18 53  1  0  0  0  0
 19 20  2  0  0  0  0
 19 22  1  0  0  0  0
 20 21  1  0  0  0  0
 20 23  1  0  0  0  0
 22 54  1  0  0  0  0
 23 55  1  0  0  0  0
M  END
$$$$