/media/chris/experiments/cd1a-new-docking/inputs/ligands/5j1a_ligand.pdb
 OpenBabel07022311203D

 55 55  0  0  0  0  0  0  0  0999 V2000
  -43.4508   62.7202   60.7667 C   0  0  0  0  0  0  0  0  0  0  0  0
  -40.9176   59.2540   58.1673 C   0  0  0  0  0  0  0  0  0  0  0  0
  -41.5245   57.2724   59.5157 C   0  0  0  0  0  0  0  0  0  0  0  0
  -41.4385   60.7112   58.1513 C   0  0  0  0  0  0  0  0  0  0  0  0
  -41.1044   55.9720   60.2283 C   0  0  0  0  0  0  0  0  0  0  0  0
  -45.6877   60.7438   64.5818 C   0  0  0  0  0  0  0  0  0  0  0  0
  -44.4974   61.4817   64.6250 C   0  0  0  0  0  0  0  0  0  0  0  0
  -45.7824   59.6002   63.7799 C   0  0  0  0  0  0  0  0  0  0  0  0
  -43.1351   61.9007   59.5132 C   0  0  0  0  0  0  0  0  0  0  0  0
  -40.6180   58.5125   59.4782 C   0  0  0  0  0  0  0  0  0  0  0  0
  -41.6516   61.5121   59.4508 C   0  0  0  0  0  0  0  0  0  0  0  0
  -39.6997   55.8424   60.8202 C   0  0  0  0  0  0  0  0  0  0  0  0
  -39.5380   56.9300   61.8820 C   0  0  0  0  0  0  0  0  0  0  0  0
  -40.5750   56.7430   62.9900 C   0  0  0  0  0  0  0  0  0  0  0  0
  -41.9730   56.8130   62.3910 C   0  0  0  0  0  0  0  0  0  0  0  0
  -43.0346   56.6452   63.4882 C   0  0  0  0  0  0  0  0  0  0  0  0
  -44.4877   56.6885   62.9483 C   0  0  0  0  0  0  0  0  0  0  0  0
  -44.8286   58.0126   62.2244 C   0  0  0  0  0  0  0  0  0  0  0  0
  -43.4139   61.0523   63.8589 C   0  0  0  0  0  0  0  0  0  0  0  0
  -43.5125   59.9083   63.0687 C   0  0  0  0  0  0  0  0  0  0  0  0
  -44.6875   59.1464   63.0359 C   0  0  0  0  0  0  0  0  0  0  0  0
  -42.2293   61.7113   63.8433 O   0  0  0  0  0  0  0  0  0  0  0  0
  -42.4242   59.5218   62.3421 O   0  0  0  0  0  0  0  0  0  0  0  0
  -44.4908   62.9719   60.7757 H   0  0  0  0  0  0  0  0  0  0  0  0
  -42.8669   63.6168   60.7632 H   0  0  0  0  0  0  0  0  0  0  0  0
  -43.2156   62.1448   61.6376 H   0  0  0  0  0  0  0  0  0  0  0  0
  -40.7672   58.7662   57.2704 H   0  0  0  0  0  0  0  0  0  0  0  0
  -42.4439   57.3115   59.0487 H   0  0  0  0  0  0  0  0  0  0  0  0
  -41.6489   61.1590   57.2457 H   0  0  0  0  0  0  0  0  0  0  0  0
  -41.7712   55.1882   60.3063 H   0  0  0  0  0  0  0  0  0  0  0  0
  -46.4990   61.0449   65.1442 H   0  0  0  0  0  0  0  0  0  0  0  0
  -44.4238   62.3269   65.2126 H   0  0  0  0  0  0  0  0  0  0  0  0
  -46.6746   59.0831   63.7367 H   0  0  0  0  0  0  0  0  0  0  0  0
  -43.3785   62.4815   58.6482 H   0  0  0  0  0  0  0  0  0  0  0  0
  -43.7152   61.0022   59.5459 H   0  0  0  0  0  0  0  0  0  0  0  0
  -40.8288   59.1461   60.3143 H   0  0  0  0  0  0  0  0  0  0  0  0
  -39.5869   58.2311   59.5286 H   0  0  0  0  0  0  0  0  0  0  0  0
  -41.0432   62.3923   59.4417 H   0  0  0  0  0  0  0  0  0  0  0  0
  -41.3783   60.9271   60.3040 H   0  0  0  0  0  0  0  0  0  0  0  0
  -38.9673   55.9727   60.0511 H   0  0  0  0  0  0  0  0  0  0  0  0
  -39.5648   54.8736   61.2538 H   0  0  0  0  0  0  0  0  0  0  0  0
  -39.6739   57.8897   61.4288 H   0  0  0  0  0  0  0  0  0  0  0  0
  -38.5577   56.8621   62.3055 H   0  0  0  0  0  0  0  0  0  0  0  0
  -40.4604   57.5164   63.7205 H   0  0  0  0  0  0  0  0  0  0  0  0
  -40.4329   55.7901   63.4556 H   0  0  0  0  0  0  0  0  0  0  0  0
  -42.0864   56.0321   61.6683 H   0  0  0  0  0  0  0  0  0  0  0  0
  -42.1035   57.7672   61.9248 H   0  0  0  0  0  0  0  0  0  0  0  0
  -42.9137   57.4339   64.2011 H   0  0  0  0  0  0  0  0  0  0  0  0
  -42.8880   55.6799   63.9258 H   0  0  0  0  0  0  0  0  0  0  0  0
  -45.1603   56.5679   63.7716 H   0  0  0  0  0  0  0  0  0  0  0  0
  -44.5847   55.8998   62.2317 H   0  0  0  0  0  0  0  0  0  0  0  0
  -45.8425   57.9623   61.8863 H   0  0  0  0  0  0  0  0  0  0  0  0
  -44.1355   58.1163   61.4158 H   0  0  0  0  0  0  0  0  0  0  0  0
  -42.1171   62.4855   64.3591 H   0  0  0  0  0  0  0  0  0  0  0  0
  -41.6394   60.0332   62.3658 H   0  0  0  0  0  0  0  0  0  0  0  0
  1  9  1  0  0  0  0
  1 24  1  0  0  0  0
  1 25  1  0  0  0  0
  1 26  1  0  0  0  0
  2  4  2  0  0  0  0
  2 10  1  0  0  0  0
  2 27  1  0  0  0  0
  3  5  2  0  0  0  0
  3 10  1  0  0  0  0
  3 28  1  0  0  0  0
  4 11  1  0  0  0  0
  4 29  1  0  0  0  0
  5 12  1  0  0  0  0
  5 30  1  0  0  0  0
  6  7  2  0  0  0  0
  6  8  1  0  0  0  0
  6 31  1  0  0  0  0
  7 19  1  0  0  0  0
  7 32  1  0  0  0  0
  8 21  2  0  0  0  0
  8 33  1  0  0  0  0
  9 11  1  0  0  0  0
  9 34  1  0  0  0  0
  9 35  1  0  0  0  0
 10 36  1  0  0  0  0
 10 37  1  0  0  0  0
 11 38  1  0  0  0  0
 11 39  1  0  0  0  0
 12 13  1  0  0  0  0
 12 40  1  0  0  0  0
 12 41  1  0  0  0  0
 13 14  1  0  0  0  0
 13 42  1  0  0  0  0
 13 43  1  0  0  0  0
 14 15  1  0  0  0  0
 14 44  1  0  0  0  0
 14 45  1  0  0  0  0
 15 16  1  0  0  0  0
 15 46  1  0  0  0  0
 15 47  1  0  0  0  0
 16 17  1  0  0  0  0
 16 48  1  0  0  0  0
 16 49  1  0  0  0  0
 17 18  1  0  0  0  0
 17 50  1  0  0  0  0
 17 51  1  0  0  0  0
 18 21  1  0  0  0  0
 18 52  1  0  0  0  0
 18 53  1  0  0  0  0
 19 20  2  0  0  0  0
 19 22  1  0  0  0  0
 20 21  1  0  0  0  0
 20 23  1  0  0  0  0
 22 54  1  0  0  0  0
 23 55  1  0  0  0  0
M  END
$$$$