/media/chris/experiments/cd1a-new-docking/inputs/ligands/5j1a_ligand.pdb
 OpenBabel07022311203D

 55 55  0  0  0  0  0  0  0  0999 V2000
  -39.5560   61.5619   66.2670 C   0  0  0  0  0  0  0  0  0  0  0  0
  -38.0201   57.6474   64.9884 C   0  0  0  0  0  0  0  0  0  0  0  0
  -38.3179   55.2295   64.5665 C   0  0  0  0  0  0  0  0  0  0  0  0
  -38.1849   59.0158   65.6920 C   0  0  0  0  0  0  0  0  0  0  0  0
  -37.9593   55.4582   63.0851 C   0  0  0  0  0  0  0  0  0  0  0  0
  -43.5558   52.0964   62.3543 C   0  0  0  0  0  0  0  0  0  0  0  0
  -44.3555   51.6261   63.4043 C   0  0  0  0  0  0  0  0  0  0  0  0
  -43.7144   53.4019   61.8742 C   0  0  0  0  0  0  0  0  0  0  0  0
  -38.9909   60.6583   67.3655 C   0  0  0  0  0  0  0  0  0  0  0  0
  -38.7294   56.3828   65.4944 C   0  0  0  0  0  0  0  0  0  0  0  0
  -39.0427   59.1783   66.9622 C   0  0  0  0  0  0  0  0  0  0  0  0
  -38.1263   56.8452   62.4620 C   0  0  0  0  0  0  0  0  0  0  0  0
  -39.5380   56.9300   61.8820 C   0  0  0  0  0  0  0  0  0  0  0  0
  -40.5750   56.7430   62.9900 C   0  0  0  0  0  0  0  0  0  0  0  0
  -41.9730   56.8130   62.3910 C   0  0  0  0  0  0  0  0  0  0  0  0
  -43.0346   56.6452   63.4882 C   0  0  0  0  0  0  0  0  0  0  0  0
  -44.4877   56.6885   62.9483 C   0  0  0  0  0  0  0  0  0  0  0  0
  -44.7906   55.5673   61.9262 C   0  0  0  0  0  0  0  0  0  0  0  0
  -45.3049   52.4833   63.9602 C   0  0  0  0  0  0  0  0  0  0  0  0
  -45.4521   53.7845   63.4827 C   0  0  0  0  0  0  0  0  0  0  0  0
  -44.6421   54.2764   62.4512 C   0  0  0  0  0  0  0  0  0  0  0  0
  -46.1186   52.1044   64.9761 O   0  0  0  0  0  0  0  0  0  0  0  0
  -46.3887   54.5898   64.0625 O   0  0  0  0  0  0  0  0  0  0  0  0
  -39.5036   62.5829   66.5829 H   0  0  0  0  0  0  0  0  0  0  0  0
  -40.5759   61.2989   66.0783 H   0  0  0  0  0  0  0  0  0  0  0  0
  -38.9836   61.4357   65.3718 H   0  0  0  0  0  0  0  0  0  0  0  0
  -37.4157   57.5827   64.1545 H   0  0  0  0  0  0  0  0  0  0  0  0
  -38.2803   54.2711   64.9473 H   0  0  0  0  0  0  0  0  0  0  0  0
  -37.7074   59.8424   65.2999 H   0  0  0  0  0  0  0  0  0  0  0  0
  -37.6064   54.6750   62.5131 H   0  0  0  0  0  0  0  0  0  0  0  0
  -42.8462   51.4771   61.9325 H   0  0  0  0  0  0  0  0  0  0  0  0
  -44.2441   50.6636   63.7597 H   0  0  0  0  0  0  0  0  0  0  0  0
  -43.1376   53.7247   61.0817 H   0  0  0  0  0  0  0  0  0  0  0  0
  -39.5656   60.7953   68.2576 H   0  0  0  0  0  0  0  0  0  0  0  0
  -37.9673   60.9259   67.5253 H   0  0  0  0  0  0  0  0  0  0  0  0
  -39.7902   56.5193   65.4614 H   0  0  0  0  0  0  0  0  0  0  0  0
  -38.4548   56.1725   66.5069 H   0  0  0  0  0  0  0  0  0  0  0  0
  -38.6485   58.5707   67.7497 H   0  0  0  0  0  0  0  0  0  0  0  0
  -40.0513   58.8722   66.7783 H   0  0  0  0  0  0  0  0  0  0  0  0
  -37.4044   56.9844   61.6846 H   0  0  0  0  0  0  0  0  0  0  0  0
  -37.9789   57.6065   63.1994 H   0  0  0  0  0  0  0  0  0  0  0  0
  -39.6646   56.1636   61.1461 H   0  0  0  0  0  0  0  0  0  0  0  0
  -39.6747   57.8920   61.4340 H   0  0  0  0  0  0  0  0  0  0  0  0
  -40.4604   57.5164   63.7205 H   0  0  0  0  0  0  0  0  0  0  0  0
  -40.4329   55.7901   63.4556 H   0  0  0  0  0  0  0  0  0  0  0  0
  -42.0864   56.0321   61.6683 H   0  0  0  0  0  0  0  0  0  0  0  0
  -42.1035   57.7672   61.9248 H   0  0  0  0  0  0  0  0  0  0  0  0
  -42.9137   57.4339   64.2011 H   0  0  0  0  0  0  0  0  0  0  0  0
  -42.8880   55.6799   63.9258 H   0  0  0  0  0  0  0  0  0  0  0  0
  -44.6460   57.6340   62.4730 H   0  0  0  0  0  0  0  0  0  0  0  0
  -45.1418   56.5440   63.7826 H   0  0  0  0  0  0  0  0  0  0  0  0
  -44.1221   55.6748   61.0977 H   0  0  0  0  0  0  0  0  0  0  0  0
  -45.8154   55.6734   61.6376 H   0  0  0  0  0  0  0  0  0  0  0  0
  -46.0552   51.2388   65.3292 H   0  0  0  0  0  0  0  0  0  0  0  0
  -46.9293   54.2584   64.7523 H   0  0  0  0  0  0  0  0  0  0  0  0
  1  9  1  0  0  0  0
  1 24  1  0  0  0  0
  1 25  1  0  0  0  0
  1 26  1  0  0  0  0
  2  4  2  0  0  0  0
  2 10  1  0  0  0  0
  2 27  1  0  0  0  0
  3  5  2  0  0  0  0
  3 10  1  0  0  0  0
  3 28  1  0  0  0  0
  4 11  1  0  0  0  0
  4 29  1  0  0  0  0
  5 12  1  0  0  0  0
  5 30  1  0  0  0  0
  6  7  2  0  0  0  0
  6  8  1  0  0  0  0
  6 31  1  0  0  0  0
  7 19  1  0  0  0  0
  7 32  1  0  0  0  0
  8 21  2  0  0  0  0
  8 33  1  0  0  0  0
  9 11  1  0  0  0  0
  9 34  1  0  0  0  0
  9 35  1  0  0  0  0
 10 36  1  0  0  0  0
 10 37  1  0  0  0  0
 11 38  1  0  0  0  0
 11 39  1  0  0  0  0
 12 13  1  0  0  0  0
 12 40  1  0  0  0  0
 12 41  1  0  0  0  0
 13 14  1  0  0  0  0
 13 42  1  0  0  0  0
 13 43  1  0  0  0  0
 14 15  1  0  0  0  0
 14 44  1  0  0  0  0
 14 45  1  0  0  0  0
 15 16  1  0  0  0  0
 15 46  1  0  0  0  0
 15 47  1  0  0  0  0
 16 17  1  0  0  0  0
 16 48  1  0  0  0  0
 16 49  1  0  0  0  0
 17 18  1  0  0  0  0
 17 50  1  0  0  0  0
 17 51  1  0  0  0  0
 18 21  1  0  0  0  0
 18 52  1  0  0  0  0
 18 53  1  0  0  0  0
 19 20  2  0  0  0  0
 19 22  1  0  0  0  0
 20 21  1  0  0  0  0
 20 23  1  0  0  0  0
 22 54  1  0  0  0  0
 23 55  1  0  0  0  0
M  END
$$$$