/media/chris/experiments/cd1a-new-docking/inputs/ligands/4x6d_2_ligand.pdb
 OpenBabel07012320263D

 48 47  0  0  0  0  0  0  0  0999 V2000
  -45.1469   53.0302   67.8358 C   0  0  0  0  0  0  0  0  0  0  0  0
  -45.4610   53.0126   69.0419 O   0  0  0  0  0  0  0  0  0  0  0  0
  -45.7207   54.0831   66.9207 C   0  0  0  0  0  0  0  0  0  0  0  0
  -44.3507   52.1667   67.4099 O   0  0  0  0  0  0  0  0  0  0  0  0
  -47.2371   53.9721   66.9222 C   0  0  0  0  0  0  0  0  0  0  0  0
  -47.8772   54.9973   66.0036 C   0  0  0  0  0  0  0  0  0  0  0  0
  -47.4788   56.3899   66.4640 C   0  0  0  0  0  0  0  0  0  0  0  0
  -48.1197   57.4400   65.5725 C   0  0  0  0  0  0  0  0  0  0  0  0
  -47.7410   58.8580   65.9770 C   0  0  0  0  0  0  0  0  0  0  0  0
  -48.4570   59.8040   65.0240 C   0  0  0  0  0  0  0  0  0  0  0  0
  -49.9570   59.6540   65.1090 C   0  0  0  0  0  0  0  0  0  0  0  0
  -50.8211   60.4770   64.2480 C   0  0  0  0  0  0  0  0  0  0  0  0
  -50.2050   61.6051   63.4592 C   0  0  0  0  0  0  0  0  0  0  0  0
  -51.2672   62.3408   62.6496 C   0  0  0  0  0  0  0  0  0  0  0  0
  -50.6293   63.4703   61.8410 C   0  0  0  0  0  0  0  0  0  0  0  0
  -49.9216   64.4811   62.7420 C   0  0  0  0  0  0  0  0  0  0  0  0
  -49.2962   65.6232   61.9370 C   0  0  0  0  0  0  0  0  0  0  0  0
  -48.5676   66.6386   62.8134 C   0  0  0  0  0  0  0  0  0  0  0  0
  -45.3517   53.9341   65.9274 H   0  0  0  0  0  0  0  0  0  0  0  0
  -45.4304   55.0545   67.2628 H   0  0  0  0  0  0  0  0  0  0  0  0
  -44.1024   52.1634   66.5064 H   0  0  0  0  0  0  0  0  0  0  0  0
  -47.5950   54.1281   67.9184 H   0  0  0  0  0  0  0  0  0  0  0  0
  -47.5000   52.9973   66.5679 H   0  0  0  0  0  0  0  0  0  0  0  0
  -48.9419   54.8978   66.0414 H   0  0  0  0  0  0  0  0  0  0  0  0
  -47.5457   54.8397   64.9986 H   0  0  0  0  0  0  0  0  0  0  0  0
  -46.4143   56.4871   66.4157 H   0  0  0  0  0  0  0  0  0  0  0  0
  -47.8132   56.5343   67.4701 H   0  0  0  0  0  0  0  0  0  0  0  0
  -49.1831   57.3384   65.6327 H   0  0  0  0  0  0  0  0  0  0  0  0
  -47.7650   57.2806   64.5757 H   0  0  0  0  0  0  0  0  0  0  0  0
  -46.6822   58.9911   65.8990 H   0  0  0  0  0  0  0  0  0  0  0  0
  -48.0249   59.0527   66.9901 H   0  0  0  0  0  0  0  0  0  0  0  0
  -48.1435   59.5908   64.0234 H   0  0  0  0  0  0  0  0  0  0  0  0
  -48.2063   60.8071   65.2994 H   0  0  0  0  0  0  0  0  0  0  0  0
  -50.3741   58.9777   65.7676 H   0  0  0  0  0  0  0  0  0  0  0  0
  -51.8332   60.2852   64.1849 H   0  0  0  0  0  0  0  0  0  0  0  0
  -49.4691   61.2064   62.7926 H   0  0  0  0  0  0  0  0  0  0  0  0
  -49.7538   62.2950   64.1413 H   0  0  0  0  0  0  0  0  0  0  0  0
  -51.9969   62.7518   63.3155 H   0  0  0  0  0  0  0  0  0  0  0  0
  -51.7324   61.6508   61.9770 H   0  0  0  0  0  0  0  0  0  0  0  0
  -51.3935   63.9747   61.2875 H   0  0  0  0  0  0  0  0  0  0  0  0
  -49.9008   63.0407   61.1855 H   0  0  0  0  0  0  0  0  0  0  0  0
  -49.1497   63.9784   63.2864 H   0  0  0  0  0  0  0  0  0  0  0  0
  -50.6492   64.9017   63.4042 H   0  0  0  0  0  0  0  0  0  0  0  0
  -50.0728   66.1289   61.4021 H   0  0  0  0  0  0  0  0  0  0  0  0
  -48.5732   65.1920   61.2766 H   0  0  0  0  0  0  0  0  0  0  0  0
  -49.2634   67.0911   63.4888 H   0  0  0  0  0  0  0  0  0  0  0  0
  -48.1286   67.3934   62.1951 H   0  0  0  0  0  0  0  0  0  0  0  0
  -47.8003   66.1432   63.3707 H   0  0  0  0  0  0  0  0  0  0  0  0
  1  2  2  0  0  0  0
  1  3  1  0  0  0  0
  1  4  1  0  0  0  0
  3  5  1  0  0  0  0
  3 19  1  0  0  0  0
  3 20  1  0  0  0  0
  4 21  1  0  0  0  0
  5  6  1  0  0  0  0
  5 22  1  0  0  0  0
  5 23  1  0  0  0  0
  6  7  1  0  0  0  0
  6 24  1  0  0  0  0
  6 25  1  0  0  0  0
  7  8  1  0  0  0  0
  7 26  1  0  0  0  0
  7 27  1  0  0  0  0
  8  9  1  0  0  0  0
  8 28  1  0  0  0  0
  8 29  1  0  0  0  0
  9 10  1  0  0  0  0
  9 30  1  0  0  0  0
  9 31  1  0  0  0  0
 10 11  1  0  0  0  0
 10 32  1  0  0  0  0
 10 33  1  0  0  0  0
 11 12  2  0  0  0  0
 11 34  1  0  0  0  0
 12 13  1  0  0  0  0
 12 35  1  0  0  0  0
 13 14  1  0  0  0  0
 13 36  1  0  0  0  0
 13 37  1  0  0  0  0
 14 15  1  0  0  0  0
 14 38  1  0  0  0  0
 14 39  1  0  0  0  0
 15 16  1  0  0  0  0
 15 40  1  0  0  0  0
 15 41  1  0  0  0  0
 16 17  1  0  0  0  0
 16 42  1  0  0  0  0
 16 43  1  0  0  0  0
 17 18  1  0  0  0  0
 17 44  1  0  0  0  0
 17 45  1  0  0  0  0
 18 46  1  0  0  0  0
 18 47  1  0  0  0  0
 18 48  1  0  0  0  0
M  END
$$$$