/media/chris/experiments/cd1a-new-docking/inputs/ligands/4x6d_2_ligand.pdb
 OpenBabel07012320263D

 48 47  0  0  0  0  0  0  0  0999 V2000
  -51.7170   56.1969   62.9329 C   0  0  0  0  0  0  0  0  0  0  0  0
  -51.1806   57.0955   62.2558 O   0  0  0  0  0  0  0  0  0  0  0  0
  -52.1710   56.4821   64.3429 C   0  0  0  0  0  0  0  0  0  0  0  0
  -51.8716   55.0688   62.4189 O   0  0  0  0  0  0  0  0  0  0  0  0
  -51.4369   55.5563   65.2998 C   0  0  0  0  0  0  0  0  0  0  0  0
  -49.9342   55.7639   65.2417 C   0  0  0  0  0  0  0  0  0  0  0  0
  -49.6179   57.1967   65.6381 C   0  0  0  0  0  0  0  0  0  0  0  0
  -48.1197   57.4400   65.5725 C   0  0  0  0  0  0  0  0  0  0  0  0
  -47.7410   58.8580   65.9770 C   0  0  0  0  0  0  0  0  0  0  0  0
  -48.4570   59.8040   65.0240 C   0  0  0  0  0  0  0  0  0  0  0  0
  -49.9570   59.6540   65.1090 C   0  0  0  0  0  0  0  0  0  0  0  0
  -50.7188   60.4801   66.0590 C   0  0  0  0  0  0  0  0  0  0  0  0
  -49.9693   61.2990   67.0798 C   0  0  0  0  0  0  0  0  0  0  0  0
  -50.2775   62.7829   66.9134 C   0  0  0  0  0  0  0  0  0  0  0  0
  -49.8834   63.2524   65.5132 C   0  0  0  0  0  0  0  0  0  0  0  0
  -50.1627   64.7416   65.3163 C   0  0  0  0  0  0  0  0  0  0  0  0
  -49.3726   65.6056   66.3025 C   0  0  0  0  0  0  0  0  0  0  0  0
  -49.6474   67.0980   66.1377 C   0  0  0  0  0  0  0  0  0  0  0  0
  -53.2250   56.3148   64.4205 H   0  0  0  0  0  0  0  0  0  0  0  0
  -51.9564   57.5005   64.5913 H   0  0  0  0  0  0  0  0  0  0  0  0
  -52.2728   54.3803   62.9118 H   0  0  0  0  0  0  0  0  0  0  0  0
  -51.6570   54.5424   65.0383 H   0  0  0  0  0  0  0  0  0  0  0  0
  -51.7653   55.7765   66.2940 H   0  0  0  0  0  0  0  0  0  0  0  0
  -49.5849   55.5813   64.2470 H   0  0  0  0  0  0  0  0  0  0  0  0
  -49.4491   55.0870   65.9136 H   0  0  0  0  0  0  0  0  0  0  0  0
  -49.9611   57.3712   66.6364 H   0  0  0  0  0  0  0  0  0  0  0  0
  -50.1101   57.8633   64.9611 H   0  0  0  0  0  0  0  0  0  0  0  0
  -47.7878   57.2690   64.5698 H   0  0  0  0  0  0  0  0  0  0  0  0
  -47.6509   56.7692   66.2619 H   0  0  0  0  0  0  0  0  0  0  0  0
  -46.6822   58.9911   65.8990 H   0  0  0  0  0  0  0  0  0  0  0  0
  -48.0249   59.0527   66.9901 H   0  0  0  0  0  0  0  0  0  0  0  0
  -48.1435   59.5908   64.0234 H   0  0  0  0  0  0  0  0  0  0  0  0
  -48.2063   60.8071   65.2994 H   0  0  0  0  0  0  0  0  0  0  0  0
  -50.4455   58.9755   64.5039 H   0  0  0  0  0  0  0  0  0  0  0  0
  -51.7502   60.4989   66.0272 H   0  0  0  0  0  0  0  0  0  0  0  0
  -48.9185   61.1423   66.9526 H   0  0  0  0  0  0  0  0  0  0  0  0
  -50.2751   60.9921   68.0582 H   0  0  0  0  0  0  0  0  0  0  0  0
  -49.7270   63.3417   67.6411 H   0  0  0  0  0  0  0  0  0  0  0  0
  -51.3274   62.9380   67.0500 H   0  0  0  0  0  0  0  0  0  0  0  0
  -50.4433   62.6961   64.7907 H   0  0  0  0  0  0  0  0  0  0  0  0
  -48.8326   63.0913   65.3911 H   0  0  0  0  0  0  0  0  0  0  0  0
  -51.2079   64.9196   65.4606 H   0  0  0  0  0  0  0  0  0  0  0  0
  -49.8594   65.0078   64.3253 H   0  0  0  0  0  0  0  0  0  0  0  0
  -48.3282   65.4316   66.1481 H   0  0  0  0  0  0  0  0  0  0  0  0
  -49.6808   65.3295   67.2893 H   0  0  0  0  0  0  0  0  0  0  0  0
  -49.3499   67.4094   65.1582 H   0  0  0  0  0  0  0  0  0  0  0  0
  -49.0921   67.6459   66.8701 H   0  0  0  0  0  0  0  0  0  0  0  0
  -50.6927   67.2849   66.2693 H   0  0  0  0  0  0  0  0  0  0  0  0
  1  2  2  0  0  0  0
  1  3  1  0  0  0  0
  1  4  1  0  0  0  0
  3  5  1  0  0  0  0
  3 19  1  0  0  0  0
  3 20  1  0  0  0  0
  4 21  1  0  0  0  0
  5  6  1  0  0  0  0
  5 22  1  0  0  0  0
  5 23  1  0  0  0  0
  6  7  1  0  0  0  0
  6 24  1  0  0  0  0
  6 25  1  0  0  0  0
  7  8  1  0  0  0  0
  7 26  1  0  0  0  0
  7 27  1  0  0  0  0
  8  9  1  0  0  0  0
  8 28  1  0  0  0  0
  8 29  1  0  0  0  0
  9 10  1  0  0  0  0
  9 30  1  0  0  0  0
  9 31  1  0  0  0  0
 10 11  1  0  0  0  0
 10 32  1  0  0  0  0
 10 33  1  0  0  0  0
 11 12  2  0  0  0  0
 11 34  1  0  0  0  0
 12 13  1  0  0  0  0
 12 35  1  0  0  0  0
 13 14  1  0  0  0  0
 13 36  1  0  0  0  0
 13 37  1  0  0  0  0
 14 15  1  0  0  0  0
 14 38  1  0  0  0  0
 14 39  1  0  0  0  0
 15 16  1  0  0  0  0
 15 40  1  0  0  0  0
 15 41  1  0  0  0  0
 16 17  1  0  0  0  0
 16 42  1  0  0  0  0
 16 43  1  0  0  0  0
 17 18  1  0  0  0  0
 17 44  1  0  0  0  0
 17 45  1  0  0  0  0
 18 46  1  0  0  0  0
 18 47  1  0  0  0  0
 18 48  1  0  0  0  0
M  END
$$$$