/media/chris/experiments/cd1a-new-docking/inputs/ligands/4x6d_2_ligand.pdb
 OpenBabel07012320263D

 48 47  0  0  0  0  0  0  0  0999 V2000
  -42.2422   60.3686   62.8045 C   0  0  0  0  0  0  0  0  0  0  0  0
  -42.7710   61.0857   61.9327 O   0  0  0  0  0  0  0  0  0  0  0  0
  -42.5206   60.6247   64.2647 C   0  0  0  0  0  0  0  0  0  0  0  0
  -41.4884   59.4404   62.4424 O   0  0  0  0  0  0  0  0  0  0  0  0
  -44.0102   60.4644   64.5237 C   0  0  0  0  0  0  0  0  0  0  0  0
  -44.3599   60.7269   65.9774 C   0  0  0  0  0  0  0  0  0  0  0  0
  -45.8552   60.5327   66.1684 C   0  0  0  0  0  0  0  0  0  0  0  0
  -46.2472   59.1068   65.8203 C   0  0  0  0  0  0  0  0  0  0  0  0
  -47.7410   58.8580   65.9770 C   0  0  0  0  0  0  0  0  0  0  0  0
  -48.4570   59.8040   65.0240 C   0  0  0  0  0  0  0  0  0  0  0  0
  -49.9570   59.6540   65.1090 C   0  0  0  0  0  0  0  0  0  0  0  0
  -50.8212   60.8150   64.8434 C   0  0  0  0  0  0  0  0  0  0  0  0
  -50.1916   62.1787   64.7081 C   0  0  0  0  0  0  0  0  0  0  0  0
  -50.7402   63.1337   65.7626 C   0  0  0  0  0  0  0  0  0  0  0  0
  -50.4283   62.6108   67.1647 C   0  0  0  0  0  0  0  0  0  0  0  0
  -51.0354   61.2288   67.4011 C   0  0  0  0  0  0  0  0  0  0  0  0
  -52.5576   61.2390   67.2392 C   0  0  0  0  0  0  0  0  0  0  0  0
  -53.1908   59.8724   67.4874 C   0  0  0  0  0  0  0  0  0  0  0  0
  -42.2181   61.6194   64.5179 H   0  0  0  0  0  0  0  0  0  0  0  0
  -41.9737   59.9266   64.8634 H   0  0  0  0  0  0  0  0  0  0  0  0
  -41.0815   58.8904   63.0826 H   0  0  0  0  0  0  0  0  0  0  0  0
  -44.3000   59.4655   64.2725 H   0  0  0  0  0  0  0  0  0  0  0  0
  -44.5317   61.1786   63.9215 H   0  0  0  0  0  0  0  0  0  0  0  0
  -44.0925   61.7303   66.2354 H   0  0  0  0  0  0  0  0  0  0  0  0
  -43.8235   60.0480   66.6070 H   0  0  0  0  0  0  0  0  0  0  0  0
  -46.3840   61.2104   65.5311 H   0  0  0  0  0  0  0  0  0  0  0  0
  -46.1045   60.7238   67.1913 H   0  0  0  0  0  0  0  0  0  0  0  0
  -45.7183   58.4380   66.4668 H   0  0  0  0  0  0  0  0  0  0  0  0
  -45.9962   58.9421   64.7933 H   0  0  0  0  0  0  0  0  0  0  0  0
  -48.0419   59.0556   66.9846 H   0  0  0  0  0  0  0  0  0  0  0  0
  -47.9820   57.8397   65.7538 H   0  0  0  0  0  0  0  0  0  0  0  0
  -48.1435   59.5908   64.0234 H   0  0  0  0  0  0  0  0  0  0  0  0
  -48.2063   60.8071   65.2994 H   0  0  0  0  0  0  0  0  0  0  0  0
  -50.3741   58.7419   65.3521 H   0  0  0  0  0  0  0  0  0  0  0  0
  -51.8424   60.6979   64.7512 H   0  0  0  0  0  0  0  0  0  0  0  0
  -50.4059   62.5694   63.7353 H   0  0  0  0  0  0  0  0  0  0  0  0
  -49.1348   62.0846   64.8463 H   0  0  0  0  0  0  0  0  0  0  0  0
  -51.8004   63.2182   65.6451 H   0  0  0  0  0  0  0  0  0  0  0  0
  -50.2803   64.0917   65.6379 H   0  0  0  0  0  0  0  0  0  0  0  0
  -50.8277   63.2929   67.8858 H   0  0  0  0  0  0  0  0  0  0  0  0
  -49.3658   62.5291   67.2612 H   0  0  0  0  0  0  0  0  0  0  0  0
  -50.7952   60.9106   68.3940 H   0  0  0  0  0  0  0  0  0  0  0  0
  -50.6288   60.5588   66.6725 H   0  0  0  0  0  0  0  0  0  0  0  0
  -52.7928   61.5483   66.2423 H   0  0  0  0  0  0  0  0  0  0  0  0
  -52.9535   61.9135   67.9695 H   0  0  0  0  0  0  0  0  0  0  0  0
  -52.8159   59.1705   66.7721 H   0  0  0  0  0  0  0  0  0  0  0  0
  -54.2536   59.9487   67.3891 H   0  0  0  0  0  0  0  0  0  0  0  0
  -52.9468   59.5403   68.4748 H   0  0  0  0  0  0  0  0  0  0  0  0
  1  2  2  0  0  0  0
  1  3  1  0  0  0  0
  1  4  1  0  0  0  0
  3  5  1  0  0  0  0
  3 19  1  0  0  0  0
  3 20  1  0  0  0  0
  4 21  1  0  0  0  0
  5  6  1  0  0  0  0
  5 22  1  0  0  0  0
  5 23  1  0  0  0  0
  6  7  1  0  0  0  0
  6 24  1  0  0  0  0
  6 25  1  0  0  0  0
  7  8  1  0  0  0  0
  7 26  1  0  0  0  0
  7 27  1  0  0  0  0
  8  9  1  0  0  0  0
  8 28  1  0  0  0  0
  8 29  1  0  0  0  0
  9 10  1  0  0  0  0
  9 30  1  0  0  0  0
  9 31  1  0  0  0  0
 10 11  1  0  0  0  0
 10 32  1  0  0  0  0
 10 33  1  0  0  0  0
 11 12  2  0  0  0  0
 11 34  1  0  0  0  0
 12 13  1  0  0  0  0
 12 35  1  0  0  0  0
 13 14  1  0  0  0  0
 13 36  1  0  0  0  0
 13 37  1  0  0  0  0
 14 15  1  0  0  0  0
 14 38  1  0  0  0  0
 14 39  1  0  0  0  0
 15 16  1  0  0  0  0
 15 40  1  0  0  0  0
 15 41  1  0  0  0  0
 16 17  1  0  0  0  0
 16 42  1  0  0  0  0
 16 43  1  0  0  0  0
 17 18  1  0  0  0  0
 17 44  1  0  0  0  0
 17 45  1  0  0  0  0
 18 46  1  0  0  0  0
 18 47  1  0  0  0  0
 18 48  1  0  0  0  0
M  END
$$$$