/media/chris/experiments/cd1a-new-docking/inputs/ligands/4x6d_2_ligand.pdb
 OpenBabel07012320263D

 48 47  0  0  0  0  0  0  0  0999 V2000
  -47.5759   53.7285   60.5511 C   0  0  0  0  0  0  0  0  0  0  0  0
  -46.7815   52.7952   60.3239 O   0  0  0  0  0  0  0  0  0  0  0  0
  -48.0665   53.9783   61.9556 C   0  0  0  0  0  0  0  0  0  0  0  0
  -47.9476   54.4462   59.5984 O   0  0  0  0  0  0  0  0  0  0  0  0
  -47.6638   55.3810   62.3820 C   0  0  0  0  0  0  0  0  0  0  0  0
  -48.1147   55.6897   63.7983 C   0  0  0  0  0  0  0  0  0  0  0  0
  -47.6965   57.1075   64.1518 C   0  0  0  0  0  0  0  0  0  0  0  0
  -48.1197   57.4400   65.5725 C   0  0  0  0  0  0  0  0  0  0  0  0
  -47.7410   58.8580   65.9770 C   0  0  0  0  0  0  0  0  0  0  0  0
  -48.4570   59.8040   65.0240 C   0  0  0  0  0  0  0  0  0  0  0  0
  -49.9570   59.6540   65.1090 C   0  0  0  0  0  0  0  0  0  0  0  0
  -50.7833   59.9126   63.9192 C   0  0  0  0  0  0  0  0  0  0  0  0
  -50.1406   60.5325   62.7039 C   0  0  0  0  0  0  0  0  0  0  0  0
  -49.0268   59.6399   62.1677 C   0  0  0  0  0  0  0  0  0  0  0  0
  -49.5893   58.2792   61.7573 C   0  0  0  0  0  0  0  0  0  0  0  0
  -50.2577   57.5659   62.9317 C   0  0  0  0  0  0  0  0  0  0  0  0
  -50.8071   56.1951   62.5287 C   0  0  0  0  0  0  0  0  0  0  0  0
  -51.4956   55.4685   63.6811 C   0  0  0  0  0  0  0  0  0  0  0  0
  -47.6296   53.2626   62.6202 H   0  0  0  0  0  0  0  0  0  0  0  0
  -49.1319   53.8843   61.9869 H   0  0  0  0  0  0  0  0  0  0  0  0
  -48.5445   55.1526   59.7491 H   0  0  0  0  0  0  0  0  0  0  0  0
  -48.1104   56.0879   61.7143 H   0  0  0  0  0  0  0  0  0  0  0  0
  -46.5962   55.4449   62.3510 H   0  0  0  0  0  0  0  0  0  0  0  0
  -47.6587   55.0009   64.4783 H   0  0  0  0  0  0  0  0  0  0  0  0
  -49.1786   55.5984   63.8674 H   0  0  0  0  0  0  0  0  0  0  0  0
  -48.1623   57.7927   63.4747 H   0  0  0  0  0  0  0  0  0  0  0  0
  -46.6321   57.1868   64.0766 H   0  0  0  0  0  0  0  0  0  0  0  0
  -47.6440   56.7537   66.2417 H   0  0  0  0  0  0  0  0  0  0  0  0
  -49.1857   57.3618   65.6210 H   0  0  0  0  0  0  0  0  0  0  0  0
  -46.6822   58.9911   65.8990 H   0  0  0  0  0  0  0  0  0  0  0  0
  -48.0249   59.0527   66.9901 H   0  0  0  0  0  0  0  0  0  0  0  0
  -48.1435   59.5908   64.0234 H   0  0  0  0  0  0  0  0  0  0  0  0
  -48.2063   60.8071   65.2994 H   0  0  0  0  0  0  0  0  0  0  0  0
  -50.4005   59.3715   65.9970 H   0  0  0  0  0  0  0  0  0  0  0  0
  -51.7872   59.6735   63.9164 H   0  0  0  0  0  0  0  0  0  0  0  0
  -49.7302   61.4840   62.9706 H   0  0  0  0  0  0  0  0  0  0  0  0
  -50.8842   60.6484   61.9433 H   0  0  0  0  0  0  0  0  0  0  0  0
  -48.2879   59.5014   62.9291 H   0  0  0  0  0  0  0  0  0  0  0  0
  -48.5873   60.1076   61.3115 H   0  0  0  0  0  0  0  0  0  0  0  0
  -48.7897   57.6697   61.3912 H   0  0  0  0  0  0  0  0  0  0  0  0
  -50.3281   58.4386   61.0000 H   0  0  0  0  0  0  0  0  0  0  0  0
  -51.0647   58.1704   63.2897 H   0  0  0  0  0  0  0  0  0  0  0  0
  -49.5203   57.4171   63.6926 H   0  0  0  0  0  0  0  0  0  0  0  0
  -49.9954   55.5909   62.1806 H   0  0  0  0  0  0  0  0  0  0  0  0
  -51.5404   56.3547   61.7661 H   0  0  0  0  0  0  0  0  0  0  0  0
  -50.7886   55.2919   64.4646 H   0  0  0  0  0  0  0  0  0  0  0  0
  -51.8829   54.5339   63.3329 H   0  0  0  0  0  0  0  0  0  0  0  0
  -52.2979   56.0705   64.0537 H   0  0  0  0  0  0  0  0  0  0  0  0
  1  2  2  0  0  0  0
  1  3  1  0  0  0  0
  1  4  1  0  0  0  0
  3  5  1  0  0  0  0
  3 19  1  0  0  0  0
  3 20  1  0  0  0  0
  4 21  1  0  0  0  0
  5  6  1  0  0  0  0
  5 22  1  0  0  0  0
  5 23  1  0  0  0  0
  6  7  1  0  0  0  0
  6 24  1  0  0  0  0
  6 25  1  0  0  0  0
  7  8  1  0  0  0  0
  7 26  1  0  0  0  0
  7 27  1  0  0  0  0
  8  9  1  0  0  0  0
  8 28  1  0  0  0  0
  8 29  1  0  0  0  0
  9 10  1  0  0  0  0
  9 30  1  0  0  0  0
  9 31  1  0  0  0  0
 10 11  1  0  0  0  0
 10 32  1  0  0  0  0
 10 33  1  0  0  0  0
 11 12  2  0  0  0  0
 11 34  1  0  0  0  0
 12 13  1  0  0  0  0
 12 35  1  0  0  0  0
 13 14  1  0  0  0  0
 13 36  1  0  0  0  0
 13 37  1  0  0  0  0
 14 15  1  0  0  0  0
 14 38  1  0  0  0  0
 14 39  1  0  0  0  0
 15 16  1  0  0  0  0
 15 40  1  0  0  0  0
 15 41  1  0  0  0  0
 16 17  1  0  0  0  0
 16 42  1  0  0  0  0
 16 43  1  0  0  0  0
 17 18  1  0  0  0  0
 17 44  1  0  0  0  0
 17 45  1  0  0  0  0
 18 46  1  0  0  0  0
 18 47  1  0  0  0  0
 18 48  1  0  0  0  0
M  END
$$$$