/media/chris/experiments/cd1a-new-docking/inputs/ligands/4x6d_2_ligand.pdb
 OpenBabel07012320263D

 48 47  0  0  0  0  0  0  0  0999 V2000
  -51.3886   54.9565   67.5867 C   0  0  0  0  0  0  0  0  0  0  0  0
  -51.9413   54.5566   68.6299 O   0  0  0  0  0  0  0  0  0  0  0  0
  -49.8843   55.0408   67.5129 C   0  0  0  0  0  0  0  0  0  0  0  0
  -52.1033   55.2775   66.6135 O   0  0  0  0  0  0  0  0  0  0  0  0
  -49.4395   56.4210   67.9701 C   0  0  0  0  0  0  0  0  0  0  0  0
  -47.9310   56.5769   67.9029 C   0  0  0  0  0  0  0  0  0  0  0  0
  -47.4788   56.3899   66.4640 C   0  0  0  0  0  0  0  0  0  0  0  0
  -48.1197   57.4400   65.5725 C   0  0  0  0  0  0  0  0  0  0  0  0
  -47.7410   58.8580   65.9770 C   0  0  0  0  0  0  0  0  0  0  0  0
  -48.4570   59.8040   65.0240 C   0  0  0  0  0  0  0  0  0  0  0  0
  -49.9570   59.6540   65.1090 C   0  0  0  0  0  0  0  0  0  0  0  0
  -50.7186   59.2616   63.9126 C   0  0  0  0  0  0  0  0  0  0  0  0
  -50.0176   59.2310   62.5777 C   0  0  0  0  0  0  0  0  0  0  0  0
  -50.0620   57.8305   61.9765 C   0  0  0  0  0  0  0  0  0  0  0  0
  -49.3883   56.8294   62.9147 C   0  0  0  0  0  0  0  0  0  0  0  0
  -49.3990   55.4155   62.3354 C   0  0  0  0  0  0  0  0  0  0  0  0
  -48.7404   54.4069   63.2800 C   0  0  0  0  0  0  0  0  0  0  0  0
  -48.7230   52.9884   62.7164 C   0  0  0  0  0  0  0  0  0  0  0  0
  -49.5654   54.8775   66.5047 H   0  0  0  0  0  0  0  0  0  0  0  0
  -49.4504   54.2948   68.1453 H   0  0  0  0  0  0  0  0  0  0  0  0
  -51.7066   55.5805   65.8206 H   0  0  0  0  0  0  0  0  0  0  0  0
  -49.7587   56.5710   68.9803 H   0  0  0  0  0  0  0  0  0  0  0  0
  -49.8786   57.1458   67.3170 H   0  0  0  0  0  0  0  0  0  0  0  0
  -47.4660   55.8400   68.5239 H   0  0  0  0  0  0  0  0  0  0  0  0
  -47.6522   57.5513   68.2462 H   0  0  0  0  0  0  0  0  0  0  0  0
  -47.7668   55.4162   66.1266 H   0  0  0  0  0  0  0  0  0  0  0  0
  -46.4148   56.4930   66.4159 H   0  0  0  0  0  0  0  0  0  0  0  0
  -49.1831   57.3384   65.6327 H   0  0  0  0  0  0  0  0  0  0  0  0
  -47.7650   57.2806   64.5757 H   0  0  0  0  0  0  0  0  0  0  0  0
  -46.6822   58.9911   65.8990 H   0  0  0  0  0  0  0  0  0  0  0  0
  -48.0249   59.0527   66.9901 H   0  0  0  0  0  0  0  0  0  0  0  0
  -48.1435   59.5908   64.0234 H   0  0  0  0  0  0  0  0  0  0  0  0
  -48.2063   60.8071   65.2994 H   0  0  0  0  0  0  0  0  0  0  0  0
  -50.4456   59.8258   66.0016 H   0  0  0  0  0  0  0  0  0  0  0  0
  -51.7171   59.0111   63.9859 H   0  0  0  0  0  0  0  0  0  0  0  0
  -48.9970   59.5239   62.7103 H   0  0  0  0  0  0  0  0  0  0  0  0
  -50.5147   59.9062   61.9130 H   0  0  0  0  0  0  0  0  0  0  0  0
  -49.5504   57.8332   61.0368 H   0  0  0  0  0  0  0  0  0  0  0  0
  -51.0834   57.5438   61.8366 H   0  0  0  0  0  0  0  0  0  0  0  0
  -49.9095   56.8250   63.8492 H   0  0  0  0  0  0  0  0  0  0  0  0
  -48.3693   57.1284   63.0451 H   0  0  0  0  0  0  0  0  0  0  0  0
  -48.8674   55.4181   61.4068 H   0  0  0  0  0  0  0  0  0  0  0  0
  -50.4184   55.1222   62.1953 H   0  0  0  0  0  0  0  0  0  0  0  0
  -49.2810   54.4006   64.2034 H   0  0  0  0  0  0  0  0  0  0  0  0
  -47.7236   54.7109   63.4158 H   0  0  0  0  0  0  0  0  0  0  0  0
  -49.7275   52.6513   62.5676 H   0  0  0  0  0  0  0  0  0  0  0  0
  -48.2265   52.3371   63.4050 H   0  0  0  0  0  0  0  0  0  0  0  0
  -48.2027   52.9825   61.7814 H   0  0  0  0  0  0  0  0  0  0  0  0
  1  2  2  0  0  0  0
  1  3  1  0  0  0  0
  1  4  1  0  0  0  0
  3  5  1  0  0  0  0
  3 19  1  0  0  0  0
  3 20  1  0  0  0  0
  4 21  1  0  0  0  0
  5  6  1  0  0  0  0
  5 22  1  0  0  0  0
  5 23  1  0  0  0  0
  6  7  1  0  0  0  0
  6 24  1  0  0  0  0
  6 25  1  0  0  0  0
  7  8  1  0  0  0  0
  7 26  1  0  0  0  0
  7 27  1  0  0  0  0
  8  9  1  0  0  0  0
  8 28  1  0  0  0  0
  8 29  1  0  0  0  0
  9 10  1  0  0  0  0
  9 30  1  0  0  0  0
  9 31  1  0  0  0  0
 10 11  1  0  0  0  0
 10 32  1  0  0  0  0
 10 33  1  0  0  0  0
 11 12  2  0  0  0  0
 11 34  1  0  0  0  0
 12 13  1  0  0  0  0
 12 35  1  0  0  0  0
 13 14  1  0  0  0  0
 13 36  1  0  0  0  0
 13 37  1  0  0  0  0
 14 15  1  0  0  0  0
 14 38  1  0  0  0  0
 14 39  1  0  0  0  0
 15 16  1  0  0  0  0
 15 40  1  0  0  0  0
 15 41  1  0  0  0  0
 16 17  1  0  0  0  0
 16 42  1  0  0  0  0
 16 43  1  0  0  0  0
 17 18  1  0  0  0  0
 17 44  1  0  0  0  0
 17 45  1  0  0  0  0
 18 46  1  0  0  0  0
 18 47  1  0  0  0  0
 18 48  1  0  0  0  0
M  END
$$$$