/media/chris/experiments/cd1a-new-docking/inputs/ligands/4x6d_2_ligand.pdb
 OpenBabel07012320263D

 48 47  0  0  0  0  0  0  0  0999 V2000
  -43.3268   55.3324   65.8885 C   0  0  0  0  0  0  0  0  0  0  0  0
  -43.5917   54.2919   65.2553 O   0  0  0  0  0  0  0  0  0  0  0  0
  -43.8344   55.5091   67.2980 C   0  0  0  0  0  0  0  0  0  0  0  0
  -42.6345   56.2127   65.3347 O   0  0  0  0  0  0  0  0  0  0  0  0
  -45.3531   55.4372   67.2935 C   0  0  0  0  0  0  0  0  0  0  0  0
  -45.9645   56.5083   66.4084 C   0  0  0  0  0  0  0  0  0  0  0  0
  -47.4788   56.3899   66.4640 C   0  0  0  0  0  0  0  0  0  0  0  0
  -48.1197   57.4400   65.5725 C   0  0  0  0  0  0  0  0  0  0  0  0
  -47.7410   58.8580   65.9770 C   0  0  0  0  0  0  0  0  0  0  0  0
  -48.4570   59.8040   65.0240 C   0  0  0  0  0  0  0  0  0  0  0  0
  -49.9570   59.6540   65.1090 C   0  0  0  0  0  0  0  0  0  0  0  0
  -50.7835   60.8081   65.4966 C   0  0  0  0  0  0  0  0  0  0  0  0
  -50.1051   62.0523   66.0125 C   0  0  0  0  0  0  0  0  0  0  0  0
  -51.1340   63.1184   66.3728 C   0  0  0  0  0  0  0  0  0  0  0  0
  -50.4349   64.3804   66.8777 C   0  0  0  0  0  0  0  0  0  0  0  0
  -49.5790   64.0978   68.1115 C   0  0  0  0  0  0  0  0  0  0  0  0
  -50.4114   63.5363   69.2670 C   0  0  0  0  0  0  0  0  0  0  0  0
  -49.5817   63.2613   70.5184 C   0  0  0  0  0  0  0  0  0  0  0  0
  -43.5221   56.4608   67.6744 H   0  0  0  0  0  0  0  0  0  0  0  0
  -43.4391   54.7356   67.9228 H   0  0  0  0  0  0  0  0  0  0  0  0
  -42.4248   57.0018   65.7944 H   0  0  0  0  0  0  0  0  0  0  0  0
  -45.7093   55.5693   68.2937 H   0  0  0  0  0  0  0  0  0  0  0  0
  -45.6401   54.4817   66.9067 H   0  0  0  0  0  0  0  0  0  0  0  0
  -45.6309   56.3746   65.4005 H   0  0  0  0  0  0  0  0  0  0  0  0
  -45.6643   57.4762   66.7517 H   0  0  0  0  0  0  0  0  0  0  0  0
  -47.8078   56.5333   67.4720 H   0  0  0  0  0  0  0  0  0  0  0  0
  -47.7660   55.4179   66.1210 H   0  0  0  0  0  0  0  0  0  0  0  0
  -49.1831   57.3384   65.6327 H   0  0  0  0  0  0  0  0  0  0  0  0
  -47.7650   57.2806   64.5757 H   0  0  0  0  0  0  0  0  0  0  0  0
  -46.6822   58.9911   65.8990 H   0  0  0  0  0  0  0  0  0  0  0  0
  -48.0249   59.0527   66.9901 H   0  0  0  0  0  0  0  0  0  0  0  0
  -48.1435   59.5908   64.0234 H   0  0  0  0  0  0  0  0  0  0  0  0
  -48.2063   60.8071   65.2994 H   0  0  0  0  0  0  0  0  0  0  0  0
  -50.4004   58.7467   64.8964 H   0  0  0  0  0  0  0  0  0  0  0  0
  -51.8116   60.7668   65.4166 H   0  0  0  0  0  0  0  0  0  0  0  0
  -49.4524   62.4356   65.2562 H   0  0  0  0  0  0  0  0  0  0  0  0
  -49.5486   61.8010   66.8912 H   0  0  0  0  0  0  0  0  0  0  0  0
  -51.7793   62.7417   67.1387 H   0  0  0  0  0  0  0  0  0  0  0  0
  -51.7038   63.3613   65.5003 H   0  0  0  0  0  0  0  0  0  0  0  0
  -51.1760   65.1100   67.1296 H   0  0  0  0  0  0  0  0  0  0  0  0
  -49.7921   64.7388   66.1010 H   0  0  0  0  0  0  0  0  0  0  0  0
  -49.1175   65.0096   68.4286 H   0  0  0  0  0  0  0  0  0  0  0  0
  -48.8448   63.3663   67.8454 H   0  0  0  0  0  0  0  0  0  0  0  0
  -50.8630   62.6200   68.9486 H   0  0  0  0  0  0  0  0  0  0  0  0
  -51.1436   64.2734   69.5229 H   0  0  0  0  0  0  0  0  0  0  0  0
  -48.8366   62.5258   70.2978 H   0  0  0  0  0  0  0  0  0  0  0  0
  -50.2201   62.8999   71.2973 H   0  0  0  0  0  0  0  0  0  0  0  0
  -49.1068   64.1656   70.8373 H   0  0  0  0  0  0  0  0  0  0  0  0
  1  2  2  0  0  0  0
  1  3  1  0  0  0  0
  1  4  1  0  0  0  0
  3  5  1  0  0  0  0
  3 19  1  0  0  0  0
  3 20  1  0  0  0  0
  4 21  1  0  0  0  0
  5  6  1  0  0  0  0
  5 22  1  0  0  0  0
  5 23  1  0  0  0  0
  6  7  1  0  0  0  0
  6 24  1  0  0  0  0
  6 25  1  0  0  0  0
  7  8  1  0  0  0  0
  7 26  1  0  0  0  0
  7 27  1  0  0  0  0
  8  9  1  0  0  0  0
  8 28  1  0  0  0  0
  8 29  1  0  0  0  0
  9 10  1  0  0  0  0
  9 30  1  0  0  0  0
  9 31  1  0  0  0  0
 10 11  1  0  0  0  0
 10 32  1  0  0  0  0
 10 33  1  0  0  0  0
 11 12  2  0  0  0  0
 11 34  1  0  0  0  0
 12 13  1  0  0  0  0
 12 35  1  0  0  0  0
 13 14  1  0  0  0  0
 13 36  1  0  0  0  0
 13 37  1  0  0  0  0
 14 15  1  0  0  0  0
 14 38  1  0  0  0  0
 14 39  1  0  0  0  0
 15 16  1  0  0  0  0
 15 40  1  0  0  0  0
 15 41  1  0  0  0  0
 16 17  1  0  0  0  0
 16 42  1  0  0  0  0
 16 43  1  0  0  0  0
 17 18  1  0  0  0  0
 17 44  1  0  0  0  0
 17 45  1  0  0  0  0
 18 46  1  0  0  0  0
 18 47  1  0  0  0  0
 18 48  1  0  0  0  0
M  END
$$$$