/media/chris/experiments/cd1a-new-docking/inputs/ligands/4x6d_2_ligand.pdb
 OpenBabel07012320263D

 48 47  0  0  0  0  0  0  0  0999 V2000
  -45.2239   53.8279   65.4268 C   0  0  0  0  0  0  0  0  0  0  0  0
  -45.4361   52.7480   64.8416 O   0  0  0  0  0  0  0  0  0  0  0  0
  -45.7330   54.0395   66.8309 C   0  0  0  0  0  0  0  0  0  0  0  0
  -44.5824   54.7185   64.8298 O   0  0  0  0  0  0  0  0  0  0  0  0
  -45.3531   55.4372   67.2935 C   0  0  0  0  0  0  0  0  0  0  0  0
  -45.9645   56.5083   66.4084 C   0  0  0  0  0  0  0  0  0  0  0  0
  -47.4788   56.3899   66.4640 C   0  0  0  0  0  0  0  0  0  0  0  0
  -48.1197   57.4400   65.5725 C   0  0  0  0  0  0  0  0  0  0  0  0
  -47.7410   58.8580   65.9770 C   0  0  0  0  0  0  0  0  0  0  0  0
  -48.4570   59.8040   65.0240 C   0  0  0  0  0  0  0  0  0  0  0  0
  -49.9570   59.6540   65.1090 C   0  0  0  0  0  0  0  0  0  0  0  0
  -50.5762   58.3511   64.8186 C   0  0  0  0  0  0  0  0  0  0  0  0
  -49.7261   57.2529   64.2305 C   0  0  0  0  0  0  0  0  0  0  0  0
  -49.7029   56.0370   65.1503 C   0  0  0  0  0  0  0  0  0  0  0  0
  -48.8248   54.9375   64.5531 C   0  0  0  0  0  0  0  0  0  0  0  0
  -48.7920   53.6948   65.4414 C   0  0  0  0  0  0  0  0  0  0  0  0
  -47.8997   52.5978   64.8552 C   0  0  0  0  0  0  0  0  0  0  0  0
  -47.8635   51.3378   65.7161 C   0  0  0  0  0  0  0  0  0  0  0  0
  -45.2940   53.3145   67.4840 H   0  0  0  0  0  0  0  0  0  0  0  0
  -46.7973   53.9313   66.8482 H   0  0  0  0  0  0  0  0  0  0  0  0
  -44.4127   55.5371   65.2529 H   0  0  0  0  0  0  0  0  0  0  0  0
  -44.2878   55.5331   67.2680 H   0  0  0  0  0  0  0  0  0  0  0  0
  -45.7272   55.5724   68.2868 H   0  0  0  0  0  0  0  0  0  0  0  0
  -45.6309   56.3746   65.4005 H   0  0  0  0  0  0  0  0  0  0  0  0
  -45.6643   57.4762   66.7517 H   0  0  0  0  0  0  0  0  0  0  0  0
  -47.8078   56.5333   67.4720 H   0  0  0  0  0  0  0  0  0  0  0  0
  -47.7660   55.4179   66.1210 H   0  0  0  0  0  0  0  0  0  0  0  0
  -49.1831   57.3384   65.6327 H   0  0  0  0  0  0  0  0  0  0  0  0
  -47.7650   57.2806   64.5757 H   0  0  0  0  0  0  0  0  0  0  0  0
  -46.6822   58.9911   65.8990 H   0  0  0  0  0  0  0  0  0  0  0  0
  -48.0249   59.0527   66.9901 H   0  0  0  0  0  0  0  0  0  0  0  0
  -48.1435   59.5908   64.0234 H   0  0  0  0  0  0  0  0  0  0  0  0
  -48.2063   60.8071   65.2994 H   0  0  0  0  0  0  0  0  0  0  0  0
  -50.5450   60.4611   65.3695 H   0  0  0  0  0  0  0  0  0  0  0  0
  -51.5768   58.1913   65.0143 H   0  0  0  0  0  0  0  0  0  0  0  0
  -48.7273   57.6138   64.1003 H   0  0  0  0  0  0  0  0  0  0  0  0
  -50.1425   56.9632   63.2884 H   0  0  0  0  0  0  0  0  0  0  0  0
  -50.6994   55.6665   65.2709 H   0  0  0  0  0  0  0  0  0  0  0  0
  -49.3020   56.3259   66.0993 H   0  0  0  0  0  0  0  0  0  0  0  0
  -47.8283   55.3113   64.4429 H   0  0  0  0  0  0  0  0  0  0  0  0
  -49.2372   54.6593   63.6058 H   0  0  0  0  0  0  0  0  0  0  0  0
  -49.7872   53.3147   65.5414 H   0  0  0  0  0  0  0  0  0  0  0  0
  -48.3897   53.9770   66.3919 H   0  0  0  0  0  0  0  0  0  0  0  0
  -46.9039   52.9790   64.7661 H   0  0  0  0  0  0  0  0  0  0  0  0
  -48.3085   52.3254   63.9046 H   0  0  0  0  0  0  0  0  0  0  0  0
  -47.4585   51.5745   66.6778 H   0  0  0  0  0  0  0  0  0  0  0  0
  -47.2502   50.5998   65.2426 H   0  0  0  0  0  0  0  0  0  0  0  0
  -48.8564   50.9559   65.8313 H   0  0  0  0  0  0  0  0  0  0  0  0
  1  2  2  0  0  0  0
  1  3  1  0  0  0  0
  1  4  1  0  0  0  0
  3  5  1  0  0  0  0
  3 19  1  0  0  0  0
  3 20  1  0  0  0  0
  4 21  1  0  0  0  0
  5  6  1  0  0  0  0
  5 22  1  0  0  0  0
  5 23  1  0  0  0  0
  6  7  1  0  0  0  0
  6 24  1  0  0  0  0
  6 25  1  0  0  0  0
  7  8  1  0  0  0  0
  7 26  1  0  0  0  0
  7 27  1  0  0  0  0
  8  9  1  0  0  0  0
  8 28  1  0  0  0  0
  8 29  1  0  0  0  0
  9 10  1  0  0  0  0
  9 30  1  0  0  0  0
  9 31  1  0  0  0  0
 10 11  1  0  0  0  0
 10 32  1  0  0  0  0
 10 33  1  0  0  0  0
 11 12  2  0  0  0  0
 11 34  1  0  0  0  0
 12 13  1  0  0  0  0
 12 35  1  0  0  0  0
 13 14  1  0  0  0  0
 13 36  1  0  0  0  0
 13 37  1  0  0  0  0
 14 15  1  0  0  0  0
 14 38  1  0  0  0  0
 14 39  1  0  0  0  0
 15 16  1  0  0  0  0
 15 40  1  0  0  0  0
 15 41  1  0  0  0  0
 16 17  1  0  0  0  0
 16 42  1  0  0  0  0
 16 43  1  0  0  0  0
 17 18  1  0  0  0  0
 17 44  1  0  0  0  0
 17 45  1  0  0  0  0
 18 46  1  0  0  0  0
 18 47  1  0  0  0  0
 18 48  1  0  0  0  0
M  END
$$$$