/media/chris/experiments/cd1a-new-docking/inputs/ligands/4x6d_2_ligand.pdb
 OpenBabel07012320263D

 48 47  0  0  0  0  0  0  0  0999 V2000
  -45.6016   59.4578   71.1943 C   0  0  0  0  0  0  0  0  0  0  0  0
  -44.4218   59.8574   71.2398 O   0  0  0  0  0  0  0  0  0  0  0  0
  -45.8994   58.0173   70.8598 C   0  0  0  0  0  0  0  0  0  0  0  0
  -46.5203   60.2698   71.4343 O   0  0  0  0  0  0  0  0  0  0  0  0
  -47.4053   57.8076   70.8558 C   0  0  0  0  0  0  0  0  0  0  0  0
  -48.0920   58.6794   69.8201 C   0  0  0  0  0  0  0  0  0  0  0  0
  -47.5633   58.3181   68.4417 C   0  0  0  0  0  0  0  0  0  0  0  0
  -48.2208   59.1879   67.3837 C   0  0  0  0  0  0  0  0  0  0  0  0
  -47.7410   58.8580   65.9770 C   0  0  0  0  0  0  0  0  0  0  0  0
  -48.4570   59.8040   65.0240 C   0  0  0  0  0  0  0  0  0  0  0  0
  -49.9570   59.6540   65.1090 C   0  0  0  0  0  0  0  0  0  0  0  0
  -50.5762   58.3511   64.8186 C   0  0  0  0  0  0  0  0  0  0  0  0
  -49.7261   57.2529   64.2305 C   0  0  0  0  0  0  0  0  0  0  0  0
  -49.1267   57.6890   62.8981 C   0  0  0  0  0  0  0  0  0  0  0  0
  -48.2817   56.5627   62.3031 C   0  0  0  0  0  0  0  0  0  0  0  0
  -47.6501   56.9714   60.9732 C   0  0  0  0  0  0  0  0  0  0  0  0
  -46.8171   55.8399   60.3657 C   0  0  0  0  0  0  0  0  0  0  0  0
  -46.1606   56.2289   59.0437 C   0  0  0  0  0  0  0  0  0  0  0  0
  -45.4509   57.3795   71.5926 H   0  0  0  0  0  0  0  0  0  0  0  0
  -45.5004   57.7817   69.8954 H   0  0  0  0  0  0  0  0  0  0  0  0
  -47.4136   59.9886   71.4051 H   0  0  0  0  0  0  0  0  0  0  0  0
  -47.7915   58.0500   71.8238 H   0  0  0  0  0  0  0  0  0  0  0  0
  -47.5984   56.7842   70.6106 H   0  0  0  0  0  0  0  0  0  0  0  0
  -47.8865   59.7094   70.0247 H   0  0  0  0  0  0  0  0  0  0  0  0
  -49.1493   58.5189   69.8556 H   0  0  0  0  0  0  0  0  0  0  0  0
  -47.7794   57.2901   68.2384 H   0  0  0  0  0  0  0  0  0  0  0  0
  -46.5059   58.4803   68.4195 H   0  0  0  0  0  0  0  0  0  0  0  0
  -47.9938   60.2125   67.5922 H   0  0  0  0  0  0  0  0  0  0  0  0
  -49.2742   59.0031   67.4195 H   0  0  0  0  0  0  0  0  0  0  0  0
  -47.9815   57.8436   65.7361 H   0  0  0  0  0  0  0  0  0  0  0  0
  -46.6800   58.9732   65.9008 H   0  0  0  0  0  0  0  0  0  0  0  0
  -48.1435   59.5908   64.0234 H   0  0  0  0  0  0  0  0  0  0  0  0
  -48.2063   60.8071   65.2994 H   0  0  0  0  0  0  0  0  0  0  0  0
  -50.5450   60.4611   65.3695 H   0  0  0  0  0  0  0  0  0  0  0  0
  -51.5768   58.1913   65.0143 H   0  0  0  0  0  0  0  0  0  0  0  0
  -50.3320   56.3848   64.0755 H   0  0  0  0  0  0  0  0  0  0  0  0
  -48.9295   57.0337   64.9104 H   0  0  0  0  0  0  0  0  0  0  0  0
  -48.5095   58.5492   63.0533 H   0  0  0  0  0  0  0  0  0  0  0  0
  -49.9199   57.9249   62.2199 H   0  0  0  0  0  0  0  0  0  0  0  0
  -48.9061   55.7088   62.1425 H   0  0  0  0  0  0  0  0  0  0  0  0
  -47.4938   56.3380   62.9913 H   0  0  0  0  0  0  0  0  0  0  0  0
  -47.0165   57.8180   61.1368 H   0  0  0  0  0  0  0  0  0  0  0  0
  -48.4390   57.2065   60.2897 H   0  0  0  0  0  0  0  0  0  0  0  0
  -47.4565   54.9991   60.1949 H   0  0  0  0  0  0  0  0  0  0  0  0
  -46.0339   55.6107   61.0577 H   0  0  0  0  0  0  0  0  0  0  0  0
  -46.9177   56.4655   58.3255 H   0  0  0  0  0  0  0  0  0  0  0  0
  -45.5709   55.4117   58.6841 H   0  0  0  0  0  0  0  0  0  0  0  0
  -45.5331   57.0823   59.1946 H   0  0  0  0  0  0  0  0  0  0  0  0
  1  2  2  0  0  0  0
  1  3  1  0  0  0  0
  1  4  1  0  0  0  0
  3  5  1  0  0  0  0
  3 19  1  0  0  0  0
  3 20  1  0  0  0  0
  4 21  1  0  0  0  0
  5  6  1  0  0  0  0
  5 22  1  0  0  0  0
  5 23  1  0  0  0  0
  6  7  1  0  0  0  0
  6 24  1  0  0  0  0
  6 25  1  0  0  0  0
  7  8  1  0  0  0  0
  7 26  1  0  0  0  0
  7 27  1  0  0  0  0
  8  9  1  0  0  0  0
  8 28  1  0  0  0  0
  8 29  1  0  0  0  0
  9 10  1  0  0  0  0
  9 30  1  0  0  0  0
  9 31  1  0  0  0  0
 10 11  1  0  0  0  0
 10 32  1  0  0  0  0
 10 33  1  0  0  0  0
 11 12  2  0  0  0  0
 11 34  1  0  0  0  0
 12 13  1  0  0  0  0
 12 35  1  0  0  0  0
 13 14  1  0  0  0  0
 13 36  1  0  0  0  0
 13 37  1  0  0  0  0
 14 15  1  0  0  0  0
 14 38  1  0  0  0  0
 14 39  1  0  0  0  0
 15 16  1  0  0  0  0
 15 40  1  0  0  0  0
 15 41  1  0  0  0  0
 16 17  1  0  0  0  0
 16 42  1  0  0  0  0
 16 43  1  0  0  0  0
 17 18  1  0  0  0  0
 17 44  1  0  0  0  0
 17 45  1  0  0  0  0
 18 46  1  0  0  0  0
 18 47  1  0  0  0  0
 18 48  1  0  0  0  0
M  END
$$$$