/media/chris/experiments/cd1a-new-docking/inputs/ligands/4x6d_2_ligand.pdb
 OpenBabel07012320263D

 48 47  0  0  0  0  0  0  0  0999 V2000
  -46.4633   54.0346   67.1395 C   0  0  0  0  0  0  0  0  0  0  0  0
  -46.8877   53.6413   68.2435 O   0  0  0  0  0  0  0  0  0  0  0  0
  -45.0078   54.3950   66.9742 C   0  0  0  0  0  0  0  0  0  0  0  0
  -47.2632   54.1174   66.1834 O   0  0  0  0  0  0  0  0  0  0  0  0
  -44.8221   55.8724   67.2813 C   0  0  0  0  0  0  0  0  0  0  0  0
  -45.6568   56.7472   66.3634 C   0  0  0  0  0  0  0  0  0  0  0  0
  -45.4106   58.2057   66.7127 C   0  0  0  0  0  0  0  0  0  0  0  0
  -46.2472   59.1068   65.8203 C   0  0  0  0  0  0  0  0  0  0  0  0
  -47.7410   58.8580   65.9770 C   0  0  0  0  0  0  0  0  0  0  0  0
  -48.4570   59.8040   65.0240 C   0  0  0  0  0  0  0  0  0  0  0  0
  -49.9570   59.6540   65.1090 C   0  0  0  0  0  0  0  0  0  0  0  0
  -50.6439   58.6943   64.2300 C   0  0  0  0  0  0  0  0  0  0  0  0
  -49.8682   58.0413   63.1137 C   0  0  0  0  0  0  0  0  0  0  0  0
  -49.3087   59.0905   62.1593 C   0  0  0  0  0  0  0  0  0  0  0  0
  -48.5397   58.4170   61.0229 C   0  0  0  0  0  0  0  0  0  0  0  0
  -49.4369   57.4895   60.2046 C   0  0  0  0  0  0  0  0  0  0  0  0
  -50.5980   58.2463   59.5547 C   0  0  0  0  0  0  0  0  0  0  0  0
  -50.1328   59.3340   58.5901 C   0  0  0  0  0  0  0  0  0  0  0  0
  -44.7019   54.1971   65.9681 H   0  0  0  0  0  0  0  0  0  0  0  0
  -44.4136   53.8103   67.6449 H   0  0  0  0  0  0  0  0  0  0  0  0
  -46.9633   54.4110   65.3457 H   0  0  0  0  0  0  0  0  0  0  0  0
  -43.7899   56.1252   67.1568 H   0  0  0  0  0  0  0  0  0  0  0  0
  -45.1413   56.0460   68.2878 H   0  0  0  0  0  0  0  0  0  0  0  0
  -46.6937   56.5171   66.4933 H   0  0  0  0  0  0  0  0  0  0  0  0
  -45.3827   56.5677   65.3447 H   0  0  0  0  0  0  0  0  0  0  0  0
  -44.3744   58.4328   66.5724 H   0  0  0  0  0  0  0  0  0  0  0  0
  -45.6857   58.3718   67.7333 H   0  0  0  0  0  0  0  0  0  0  0  0
  -45.9748   58.9289   64.8010 H   0  0  0  0  0  0  0  0  0  0  0  0
  -46.0543   60.1191   66.1082 H   0  0  0  0  0  0  0  0  0  0  0  0
  -48.0419   59.0556   66.9846 H   0  0  0  0  0  0  0  0  0  0  0  0
  -47.9820   57.8397   65.7538 H   0  0  0  0  0  0  0  0  0  0  0  0
  -48.1435   59.5908   64.0234 H   0  0  0  0  0  0  0  0  0  0  0  0
  -48.2063   60.8071   65.2994 H   0  0  0  0  0  0  0  0  0  0  0  0
  -50.4978   60.2216   65.7801 H   0  0  0  0  0  0  0  0  0  0  0  0
  -51.6410   58.4716   64.3753 H   0  0  0  0  0  0  0  0  0  0  0  0
  -50.5172   57.3849   62.5725 H   0  0  0  0  0  0  0  0  0  0  0  0
  -49.0532   57.4923   63.5370 H   0  0  0  0  0  0  0  0  0  0  0  0
  -48.6488   59.7398   62.6959 H   0  0  0  0  0  0  0  0  0  0  0  0
  -50.1196   59.6529   61.7457 H   0  0  0  0  0  0  0  0  0  0  0  0
  -47.7371   57.8446   61.4390 H   0  0  0  0  0  0  0  0  0  0  0  0
  -48.1689   59.1813   60.3724 H   0  0  0  0  0  0  0  0  0  0  0  0
  -49.8343   56.7344   60.8501 H   0  0  0  0  0  0  0  0  0  0  0  0
  -48.8446   57.0578   59.4251 H   0  0  0  0  0  0  0  0  0  0  0  0
  -51.1831   58.7017   60.3262 H   0  0  0  0  0  0  0  0  0  0  0  0
  -51.1665   57.5377   58.9893 H   0  0  0  0  0  0  0  0  0  0  0  0
  -49.5589   60.0624   59.1240 H   0  0  0  0  0  0  0  0  0  0  0  0
  -50.9847   59.8060   58.1470 H   0  0  0  0  0  0  0  0  0  0  0  0
  -49.5285   58.8961   57.8233 H   0  0  0  0  0  0  0  0  0  0  0  0
  1  2  2  0  0  0  0
  1  3  1  0  0  0  0
  1  4  1  0  0  0  0
  3  5  1  0  0  0  0
  3 19  1  0  0  0  0
  3 20  1  0  0  0  0
  4 21  1  0  0  0  0
  5  6  1  0  0  0  0
  5 22  1  0  0  0  0
  5 23  1  0  0  0  0
  6  7  1  0  0  0  0
  6 24  1  0  0  0  0
  6 25  1  0  0  0  0
  7  8  1  0  0  0  0
  7 26  1  0  0  0  0
  7 27  1  0  0  0  0
  8  9  1  0  0  0  0
  8 28  1  0  0  0  0
  8 29  1  0  0  0  0
  9 10  1  0  0  0  0
  9 30  1  0  0  0  0
  9 31  1  0  0  0  0
 10 11  1  0  0  0  0
 10 32  1  0  0  0  0
 10 33  1  0  0  0  0
 11 12  2  0  0  0  0
 11 34  1  0  0  0  0
 12 13  1  0  0  0  0
 12 35  1  0  0  0  0
 13 14  1  0  0  0  0
 13 36  1  0  0  0  0
 13 37  1  0  0  0  0
 14 15  1  0  0  0  0
 14 38  1  0  0  0  0
 14 39  1  0  0  0  0
 15 16  1  0  0  0  0
 15 40  1  0  0  0  0
 15 41  1  0  0  0  0
 16 17  1  0  0  0  0
 16 42  1  0  0  0  0
 16 43  1  0  0  0  0
 17 18  1  0  0  0  0
 17 44  1  0  0  0  0
 17 45  1  0  0  0  0
 18 46  1  0  0  0  0
 18 47  1  0  0  0  0
 18 48  1  0  0  0  0
M  END
$$$$