/media/chris/experiments/cd1a-new-docking/inputs/ligands/4x6d_2_ligand.pdb
 OpenBabel07012320263D

 48 47  0  0  0  0  0  0  0  0999 V2000
  -47.8202   61.7967   71.9346 C   0  0  0  0  0  0  0  0  0  0  0  0
  -48.3513   61.4603   73.0109 O   0  0  0  0  0  0  0  0  0  0  0  0
  -48.5713   62.6720   70.9623 C   0  0  0  0  0  0  0  0  0  0  0  0
  -46.6621   61.3992   71.6863 O   0  0  0  0  0  0  0  0  0  0  0  0
  -48.1263   62.3404   69.5468 C   0  0  0  0  0  0  0  0  0  0  0  0
  -48.4141   60.8930   69.1910 C   0  0  0  0  0  0  0  0  0  0  0  0
  -47.9302   60.6268   67.7751 C   0  0  0  0  0  0  0  0  0  0  0  0
  -48.2208   59.1879   67.3837 C   0  0  0  0  0  0  0  0  0  0  0  0
  -47.7410   58.8580   65.9770 C   0  0  0  0  0  0  0  0  0  0  0  0
  -48.4570   59.8040   65.0240 C   0  0  0  0  0  0  0  0  0  0  0  0
  -49.9570   59.6540   65.1090 C   0  0  0  0  0  0  0  0  0  0  0  0
  -50.7833   59.9126   63.9192 C   0  0  0  0  0  0  0  0  0  0  0  0
  -50.1406   60.5325   62.7039 C   0  0  0  0  0  0  0  0  0  0  0  0
  -50.2291   62.0536   62.7629 C   0  0  0  0  0  0  0  0  0  0  0  0
  -49.5905   62.6703   61.5187 C   0  0  0  0  0  0  0  0  0  0  0  0
  -48.1205   62.2763   61.3828 C   0  0  0  0  0  0  0  0  0  0  0  0
  -47.2965   62.7204   62.5941 C   0  0  0  0  0  0  0  0  0  0  0  0
  -45.8197   62.3534   62.4751 C   0  0  0  0  0  0  0  0  0  0  0  0
  -48.3630   63.7005   71.1716 H   0  0  0  0  0  0  0  0  0  0  0  0
  -49.6226   62.4983   71.0593 H   0  0  0  0  0  0  0  0  0  0  0  0
  -46.2459   61.6414   70.8825 H   0  0  0  0  0  0  0  0  0  0  0  0
  -47.0738   62.5148   69.4645 H   0  0  0  0  0  0  0  0  0  0  0  0
  -48.6730   62.9645   68.8710 H   0  0  0  0  0  0  0  0  0  0  0  0
  -49.4669   60.7112   69.2506 H   0  0  0  0  0  0  0  0  0  0  0  0
  -47.9070   60.2446   69.8747 H   0  0  0  0  0  0  0  0  0  0  0  0
  -46.8757   60.8012   67.7232 H   0  0  0  0  0  0  0  0  0  0  0  0
  -48.4421   61.2823   67.1019 H   0  0  0  0  0  0  0  0  0  0  0  0
  -49.2773   59.0257   67.4327 H   0  0  0  0  0  0  0  0  0  0  0  0
  -47.6933   58.5529   68.0644 H   0  0  0  0  0  0  0  0  0  0  0  0
  -47.9815   57.8436   65.7361 H   0  0  0  0  0  0  0  0  0  0  0  0
  -46.6800   58.9732   65.9008 H   0  0  0  0  0  0  0  0  0  0  0  0
  -48.1435   59.5908   64.0234 H   0  0  0  0  0  0  0  0  0  0  0  0
  -48.2063   60.8071   65.2994 H   0  0  0  0  0  0  0  0  0  0  0  0
  -50.4005   59.3715   65.9970 H   0  0  0  0  0  0  0  0  0  0  0  0
  -51.7872   59.6735   63.9164 H   0  0  0  0  0  0  0  0  0  0  0  0
  -50.6432   60.1855   61.8254 H   0  0  0  0  0  0  0  0  0  0  0  0
  -49.1091   60.2491   62.6784 H   0  0  0  0  0  0  0  0  0  0  0  0
  -49.7153   62.4036   63.6338 H   0  0  0  0  0  0  0  0  0  0  0  0
  -51.2589   62.3411   62.8048 H   0  0  0  0  0  0  0  0  0  0  0  0
  -49.6590   63.7360   61.5859 H   0  0  0  0  0  0  0  0  0  0  0  0
  -50.1141   62.3056   60.6597 H   0  0  0  0  0  0  0  0  0  0  0  0
  -47.7190   62.7358   60.5039 H   0  0  0  0  0  0  0  0  0  0  0  0
  -48.0676   61.2095   61.3187 H   0  0  0  0  0  0  0  0  0  0  0  0
  -47.6955   62.2510   63.4690 H   0  0  0  0  0  0  0  0  0  0  0  0
  -47.3586   63.7871   62.6509 H   0  0  0  0  0  0  0  0  0  0  0  0
  -45.7201   61.2897   62.4159 H   0  0  0  0  0  0  0  0  0  0  0  0
  -45.2923   62.7138   63.3335 H   0  0  0  0  0  0  0  0  0  0  0  0
  -45.4113   62.7995   61.5924 H   0  0  0  0  0  0  0  0  0  0  0  0
  1  2  2  0  0  0  0
  1  3  1  0  0  0  0
  1  4  1  0  0  0  0
  3  5  1  0  0  0  0
  3 19  1  0  0  0  0
  3 20  1  0  0  0  0
  4 21  1  0  0  0  0
  5  6  1  0  0  0  0
  5 22  1  0  0  0  0
  5 23  1  0  0  0  0
  6  7  1  0  0  0  0
  6 24  1  0  0  0  0
  6 25  1  0  0  0  0
  7  8  1  0  0  0  0
  7 26  1  0  0  0  0
  7 27  1  0  0  0  0
  8  9  1  0  0  0  0
  8 28  1  0  0  0  0
  8 29  1  0  0  0  0
  9 10  1  0  0  0  0
  9 30  1  0  0  0  0
  9 31  1  0  0  0  0
 10 11  1  0  0  0  0
 10 32  1  0  0  0  0
 10 33  1  0  0  0  0
 11 12  2  0  0  0  0
 11 34  1  0  0  0  0
 12 13  1  0  0  0  0
 12 35  1  0  0  0  0
 13 14  1  0  0  0  0
 13 36  1  0  0  0  0
 13 37  1  0  0  0  0
 14 15  1  0  0  0  0
 14 38  1  0  0  0  0
 14 39  1  0  0  0  0
 15 16  1  0  0  0  0
 15 40  1  0  0  0  0
 15 41  1  0  0  0  0
 16 17  1  0  0  0  0
 16 42  1  0  0  0  0
 16 43  1  0  0  0  0
 17 18  1  0  0  0  0
 17 44  1  0  0  0  0
 17 45  1  0  0  0  0
 18 46  1  0  0  0  0
 18 47  1  0  0  0  0
 18 48  1  0  0  0  0
M  END
$$$$