/media/chris/experiments/cd1a-new-docking/inputs/ligands/4x6d_2_ligand.pdb
 OpenBabel07012320263D

 48 47  0  0  0  0  0  0  0  0999 V2000
  -47.8282   57.7492   61.7072 C   0  0  0  0  0  0  0  0  0  0  0  0
  -46.6163   58.0407   61.7011 O   0  0  0  0  0  0  0  0  0  0  0  0
  -48.2696   56.3456   61.3749 C   0  0  0  0  0  0  0  0  0  0  0  0
  -48.6580   58.6372   61.9966 O   0  0  0  0  0  0  0  0  0  0  0  0
  -47.6638   55.3810   62.3820 C   0  0  0  0  0  0  0  0  0  0  0  0
  -48.1147   55.6897   63.7983 C   0  0  0  0  0  0  0  0  0  0  0  0
  -47.6965   57.1075   64.1518 C   0  0  0  0  0  0  0  0  0  0  0  0
  -48.1197   57.4400   65.5725 C   0  0  0  0  0  0  0  0  0  0  0  0
  -47.7410   58.8580   65.9770 C   0  0  0  0  0  0  0  0  0  0  0  0
  -48.4570   59.8040   65.0240 C   0  0  0  0  0  0  0  0  0  0  0  0
  -49.9570   59.6540   65.1090 C   0  0  0  0  0  0  0  0  0  0  0  0
  -50.8212   60.8150   64.8434 C   0  0  0  0  0  0  0  0  0  0  0  0
  -50.1916   62.1787   64.7081 C   0  0  0  0  0  0  0  0  0  0  0  0
  -51.2550   63.2415   64.4536 C   0  0  0  0  0  0  0  0  0  0  0  0
  -52.0282   62.9218   63.1744 C   0  0  0  0  0  0  0  0  0  0  0  0
  -51.1067   62.8585   61.9573 C   0  0  0  0  0  0  0  0  0  0  0  0
  -51.8801   62.5557   60.6713 C   0  0  0  0  0  0  0  0  0  0  0  0
  -50.9790   62.4701   59.4422 C   0  0  0  0  0  0  0  0  0  0  0  0
  -47.9386   56.0897   60.3901 H   0  0  0  0  0  0  0  0  0  0  0  0
  -49.3371   56.2847   61.4151 H   0  0  0  0  0  0  0  0  0  0  0  0
  -49.5735   58.4377   62.0066 H   0  0  0  0  0  0  0  0  0  0  0  0
  -46.5974   55.4545   62.3341 H   0  0  0  0  0  0  0  0  0  0  0  0
  -47.9921   54.3928   62.1359 H   0  0  0  0  0  0  0  0  0  0  0  0
  -47.6587   55.0009   64.4783 H   0  0  0  0  0  0  0  0  0  0  0  0
  -49.1786   55.5984   63.8674 H   0  0  0  0  0  0  0  0  0  0  0  0
  -48.1623   57.7927   63.4747 H   0  0  0  0  0  0  0  0  0  0  0  0
  -46.6321   57.1868   64.0766 H   0  0  0  0  0  0  0  0  0  0  0  0
  -47.6440   56.7537   66.2417 H   0  0  0  0  0  0  0  0  0  0  0  0
  -49.1857   57.3618   65.6210 H   0  0  0  0  0  0  0  0  0  0  0  0
  -46.6822   58.9911   65.8990 H   0  0  0  0  0  0  0  0  0  0  0  0
  -48.0249   59.0527   66.9901 H   0  0  0  0  0  0  0  0  0  0  0  0
  -48.1435   59.5908   64.0234 H   0  0  0  0  0  0  0  0  0  0  0  0
  -48.2063   60.8071   65.2994 H   0  0  0  0  0  0  0  0  0  0  0  0
  -50.3741   58.7419   65.3521 H   0  0  0  0  0  0  0  0  0  0  0  0
  -51.8424   60.6979   64.7512 H   0  0  0  0  0  0  0  0  0  0  0  0
  -49.5031   62.1679   63.8891 H   0  0  0  0  0  0  0  0  0  0  0  0
  -49.6820   62.4139   65.6191 H   0  0  0  0  0  0  0  0  0  0  0  0
  -50.7827   64.1961   64.3515 H   0  0  0  0  0  0  0  0  0  0  0  0
  -51.9368   63.2564   65.2782 H   0  0  0  0  0  0  0  0  0  0  0  0
  -52.7627   63.6832   63.0139 H   0  0  0  0  0  0  0  0  0  0  0  0
  -52.4888   61.9635   63.2940 H   0  0  0  0  0  0  0  0  0  0  0  0
  -50.3799   62.0889   62.1133 H   0  0  0  0  0  0  0  0  0  0  0  0
  -50.6386   63.8141   61.8456 H   0  0  0  0  0  0  0  0  0  0  0  0
  -52.5988   63.3326   60.5142 H   0  0  0  0  0  0  0  0  0  0  0  0
  -52.3464   61.6006   60.7946 H   0  0  0  0  0  0  0  0  0  0  0  0
  -50.4948   63.4118   59.2886 H   0  0  0  0  0  0  0  0  0  0  0  0
  -51.5695   62.2283   58.5832 H   0  0  0  0  0  0  0  0  0  0  0  0
  -50.2411   61.7101   59.5931 H   0  0  0  0  0  0  0  0  0  0  0  0
  1  2  2  0  0  0  0
  1  3  1  0  0  0  0
  1  4  1  0  0  0  0
  3  5  1  0  0  0  0
  3 19  1  0  0  0  0
  3 20  1  0  0  0  0
  4 21  1  0  0  0  0
  5  6  1  0  0  0  0
  5 22  1  0  0  0  0
  5 23  1  0  0  0  0
  6  7  1  0  0  0  0
  6 24  1  0  0  0  0
  6 25  1  0  0  0  0
  7  8  1  0  0  0  0
  7 26  1  0  0  0  0
  7 27  1  0  0  0  0
  8  9  1  0  0  0  0
  8 28  1  0  0  0  0
  8 29  1  0  0  0  0
  9 10  1  0  0  0  0
  9 30  1  0  0  0  0
  9 31  1  0  0  0  0
 10 11  1  0  0  0  0
 10 32  1  0  0  0  0
 10 33  1  0  0  0  0
 11 12  2  0  0  0  0
 11 34  1  0  0  0  0
 12 13  1  0  0  0  0
 12 35  1  0  0  0  0
 13 14  1  0  0  0  0
 13 36  1  0  0  0  0
 13 37  1  0  0  0  0
 14 15  1  0  0  0  0
 14 38  1  0  0  0  0
 14 39  1  0  0  0  0
 15 16  1  0  0  0  0
 15 40  1  0  0  0  0
 15 41  1  0  0  0  0
 16 17  1  0  0  0  0
 16 42  1  0  0  0  0
 16 43  1  0  0  0  0
 17 18  1  0  0  0  0
 17 44  1  0  0  0  0
 17 45  1  0  0  0  0
 18 46  1  0  0  0  0
 18 47  1  0  0  0  0
 18 48  1  0  0  0  0
M  END
$$$$