/media/chris/experiments/cd1a-new-docking/inputs/ligands/4x6d_2_ligand.pdb
 OpenBabel07012320263D

 48 47  0  0  0  0  0  0  0  0999 V2000
  -44.2646   61.3450   62.4028 C   0  0  0  0  0  0  0  0  0  0  0  0
  -44.8878   60.5581   61.6639 O   0  0  0  0  0  0  0  0  0  0  0  0
  -44.7010   61.5448   63.8329 C   0  0  0  0  0  0  0  0  0  0  0  0
  -43.2782   61.9534   61.9361 O   0  0  0  0  0  0  0  0  0  0  0  0
  -43.9755   60.5452   64.7197 C   0  0  0  0  0  0  0  0  0  0  0  0
  -44.2663   59.1133   64.3081 C   0  0  0  0  0  0  0  0  0  0  0  0
  -45.7632   58.8672   64.4003 C   0  0  0  0  0  0  0  0  0  0  0  0
  -46.2472   59.1068   65.8203 C   0  0  0  0  0  0  0  0  0  0  0  0
  -47.7410   58.8580   65.9770 C   0  0  0  0  0  0  0  0  0  0  0  0
  -48.4570   59.8040   65.0240 C   0  0  0  0  0  0  0  0  0  0  0  0
  -49.9570   59.6540   65.1090 C   0  0  0  0  0  0  0  0  0  0  0  0
  -50.7835   60.8081   65.4966 C   0  0  0  0  0  0  0  0  0  0  0  0
  -50.1051   62.0523   66.0125 C   0  0  0  0  0  0  0  0  0  0  0  0
  -49.1679   62.6325   64.9591 C   0  0  0  0  0  0  0  0  0  0  0  0
  -49.9524   63.0132   63.7037 C   0  0  0  0  0  0  0  0  0  0  0  0
  -49.0408   63.5832   62.6180 C   0  0  0  0  0  0  0  0  0  0  0  0
  -47.9784   62.5732   62.1768 C   0  0  0  0  0  0  0  0  0  0  0  0
  -47.0431   63.1248   61.1040 C   0  0  0  0  0  0  0  0  0  0  0  0
  -45.7571   61.3913   63.9099 H   0  0  0  0  0  0  0  0  0  0  0  0
  -44.4656   62.5407   64.1455 H   0  0  0  0  0  0  0  0  0  0  0  0
  -42.7968   62.5491   62.4759 H   0  0  0  0  0  0  0  0  0  0  0  0
  -44.2925   60.6860   65.7319 H   0  0  0  0  0  0  0  0  0  0  0  0
  -42.9236   60.7134   64.6197 H   0  0  0  0  0  0  0  0  0  0  0  0
  -43.7510   58.4404   64.9613 H   0  0  0  0  0  0  0  0  0  0  0  0
  -43.9340   58.9507   63.3040 H   0  0  0  0  0  0  0  0  0  0  0  0
  -45.9731   57.8557   64.1212 H   0  0  0  0  0  0  0  0  0  0  0  0
  -46.2693   59.5404   63.7404 H   0  0  0  0  0  0  0  0  0  0  0  0
  -46.0386   60.1217   66.0873 H   0  0  0  0  0  0  0  0  0  0  0  0
  -45.7343   58.4185   66.4591 H   0  0  0  0  0  0  0  0  0  0  0  0
  -48.0419   59.0556   66.9846 H   0  0  0  0  0  0  0  0  0  0  0  0
  -47.9820   57.8397   65.7538 H   0  0  0  0  0  0  0  0  0  0  0  0
  -48.1435   59.5908   64.0234 H   0  0  0  0  0  0  0  0  0  0  0  0
  -48.2063   60.8071   65.2994 H   0  0  0  0  0  0  0  0  0  0  0  0
  -50.4004   58.7467   64.8964 H   0  0  0  0  0  0  0  0  0  0  0  0
  -51.8116   60.7668   65.4166 H   0  0  0  0  0  0  0  0  0  0  0  0
  -49.5406   61.8071   66.8878 H   0  0  0  0  0  0  0  0  0  0  0  0
  -50.8537   62.7806   66.2450 H   0  0  0  0  0  0  0  0  0  0  0  0
  -48.4274   61.9031   64.7050 H   0  0  0  0  0  0  0  0  0  0  0  0
  -48.6983   63.5086   65.3553 H   0  0  0  0  0  0  0  0  0  0  0  0
  -50.6851   63.7487   63.9625 H   0  0  0  0  0  0  0  0  0  0  0  0
  -50.4158   62.1286   63.3192 H   0  0  0  0  0  0  0  0  0  0  0  0
  -48.5519   64.4552   62.9995 H   0  0  0  0  0  0  0  0  0  0  0  0
  -49.6457   63.8210   61.7680 H   0  0  0  0  0  0  0  0  0  0  0  0
  -48.4716   61.7072   61.7873 H   0  0  0  0  0  0  0  0  0  0  0  0
  -47.3816   62.3401   63.0338 H   0  0  0  0  0  0  0  0  0  0  0  0
  -47.6087   63.3695   60.2292 H   0  0  0  0  0  0  0  0  0  0  0  0
  -46.3077   62.3874   60.8584 H   0  0  0  0  0  0  0  0  0  0  0  0
  -46.5574   64.0043   61.4721 H   0  0  0  0  0  0  0  0  0  0  0  0
  1  2  2  0  0  0  0
  1  3  1  0  0  0  0
  1  4  1  0  0  0  0
  3  5  1  0  0  0  0
  3 19  1  0  0  0  0
  3 20  1  0  0  0  0
  4 21  1  0  0  0  0
  5  6  1  0  0  0  0
  5 22  1  0  0  0  0
  5 23  1  0  0  0  0
  6  7  1  0  0  0  0
  6 24  1  0  0  0  0
  6 25  1  0  0  0  0
  7  8  1  0  0  0  0
  7 26  1  0  0  0  0
  7 27  1  0  0  0  0
  8  9  1  0  0  0  0
  8 28  1  0  0  0  0
  8 29  1  0  0  0  0
  9 10  1  0  0  0  0
  9 30  1  0  0  0  0
  9 31  1  0  0  0  0
 10 11  1  0  0  0  0
 10 32  1  0  0  0  0
 10 33  1  0  0  0  0
 11 12  2  0  0  0  0
 11 34  1  0  0  0  0
 12 13  1  0  0  0  0
 12 35  1  0  0  0  0
 13 14  1  0  0  0  0
 13 36  1  0  0  0  0
 13 37  1  0  0  0  0
 14 15  1  0  0  0  0
 14 38  1  0  0  0  0
 14 39  1  0  0  0  0
 15 16  1  0  0  0  0
 15 40  1  0  0  0  0
 15 41  1  0  0  0  0
 16 17  1  0  0  0  0
 16 42  1  0  0  0  0
 16 43  1  0  0  0  0
 17 18  1  0  0  0  0
 17 44  1  0  0  0  0
 17 45  1  0  0  0  0
 18 46  1  0  0  0  0
 18 47  1  0  0  0  0
 18 48  1  0  0  0  0
M  END
$$$$