/media/chris/experiments/cd1a-new-docking/inputs/ligands/4x6d_2_ligand.pdb
 OpenBabel07012320263D

 48 47  0  0  0  0  0  0  0  0999 V2000
  -49.7737   56.2528   61.4443 C   0  0  0  0  0  0  0  0  0  0  0  0
  -50.4779   56.9522   60.6902 O   0  0  0  0  0  0  0  0  0  0  0  0
  -48.2696   56.3456   61.3749 C   0  0  0  0  0  0  0  0  0  0  0  0
  -50.3382   55.4856   62.2527 O   0  0  0  0  0  0  0  0  0  0  0  0
  -47.6638   55.3810   62.3820 C   0  0  0  0  0  0  0  0  0  0  0  0
  -48.1147   55.6897   63.7983 C   0  0  0  0  0  0  0  0  0  0  0  0
  -47.6965   57.1075   64.1518 C   0  0  0  0  0  0  0  0  0  0  0  0
  -48.1197   57.4400   65.5725 C   0  0  0  0  0  0  0  0  0  0  0  0
  -47.7410   58.8580   65.9770 C   0  0  0  0  0  0  0  0  0  0  0  0
  -48.4570   59.8040   65.0240 C   0  0  0  0  0  0  0  0  0  0  0  0
  -49.9570   59.6540   65.1090 C   0  0  0  0  0  0  0  0  0  0  0  0
  -50.7186   59.2616   63.9126 C   0  0  0  0  0  0  0  0  0  0  0  0
  -50.0176   59.2310   62.5777 C   0  0  0  0  0  0  0  0  0  0  0  0
  -49.4561   60.6056   62.2311 C   0  0  0  0  0  0  0  0  0  0  0  0
  -50.5807   61.6395   62.1784 C   0  0  0  0  0  0  0  0  0  0  0  0
  -50.0560   63.0280   61.8160 C   0  0  0  0  0  0  0  0  0  0  0  0
  -49.3866   63.0437   60.4394 C   0  0  0  0  0  0  0  0  0  0  0  0
  -50.3371   62.6499   59.3118 C   0  0  0  0  0  0  0  0  0  0  0  0
  -47.9614   57.3440   61.6050 H   0  0  0  0  0  0  0  0  0  0  0  0
  -47.9383   56.0924   60.3895 H   0  0  0  0  0  0  0  0  0  0  0  0
  -49.8261   54.9518   62.8278 H   0  0  0  0  0  0  0  0  0  0  0  0
  -46.5974   55.4545   62.3341 H   0  0  0  0  0  0  0  0  0  0  0  0
  -47.9921   54.3928   62.1359 H   0  0  0  0  0  0  0  0  0  0  0  0
  -47.6587   55.0009   64.4783 H   0  0  0  0  0  0  0  0  0  0  0  0
  -49.1786   55.5984   63.8674 H   0  0  0  0  0  0  0  0  0  0  0  0
  -48.1623   57.7927   63.4747 H   0  0  0  0  0  0  0  0  0  0  0  0
  -46.6321   57.1868   64.0766 H   0  0  0  0  0  0  0  0  0  0  0  0
  -47.6440   56.7537   66.2417 H   0  0  0  0  0  0  0  0  0  0  0  0
  -49.1857   57.3618   65.6210 H   0  0  0  0  0  0  0  0  0  0  0  0
  -46.6822   58.9911   65.8990 H   0  0  0  0  0  0  0  0  0  0  0  0
  -48.0249   59.0527   66.9901 H   0  0  0  0  0  0  0  0  0  0  0  0
  -48.1435   59.5908   64.0234 H   0  0  0  0  0  0  0  0  0  0  0  0
  -48.2063   60.8071   65.2994 H   0  0  0  0  0  0  0  0  0  0  0  0
  -50.4456   59.8258   66.0016 H   0  0  0  0  0  0  0  0  0  0  0  0
  -51.7171   59.0111   63.9859 H   0  0  0  0  0  0  0  0  0  0  0  0
  -50.7149   58.9358   61.8217 H   0  0  0  0  0  0  0  0  0  0  0  0
  -49.2086   58.5327   62.6303 H   0  0  0  0  0  0  0  0  0  0  0  0
  -48.9737   60.5597   61.2771 H   0  0  0  0  0  0  0  0  0  0  0  0
  -48.7526   60.8943   62.9838 H   0  0  0  0  0  0  0  0  0  0  0  0
  -51.0533   61.6869   63.1372 H   0  0  0  0  0  0  0  0  0  0  0  0
  -51.2755   61.3380   61.4225 H   0  0  0  0  0  0  0  0  0  0  0  0
  -49.3407   63.3305   62.5520 H   0  0  0  0  0  0  0  0  0  0  0  0
  -50.8881   63.7002   61.7879 H   0  0  0  0  0  0  0  0  0  0  0  0
  -48.5668   62.3561   60.4506 H   0  0  0  0  0  0  0  0  0  0  0  0
  -49.0631   64.0461   60.2512 H   0  0  0  0  0  0  0  0  0  0  0  0
  -50.6813   61.6490   59.4687 H   0  0  0  0  0  0  0  0  0  0  0  0
  -49.8228   62.7075   58.3753 H   0  0  0  0  0  0  0  0  0  0  0  0
  -51.1735   63.3171   59.3010 H   0  0  0  0  0  0  0  0  0  0  0  0
  1  2  2  0  0  0  0
  1  3  1  0  0  0  0
  1  4  1  0  0  0  0
  3  5  1  0  0  0  0
  3 19  1  0  0  0  0
  3 20  1  0  0  0  0
  4 21  1  0  0  0  0
  5  6  1  0  0  0  0
  5 22  1  0  0  0  0
  5 23  1  0  0  0  0
  6  7  1  0  0  0  0
  6 24  1  0  0  0  0
  6 25  1  0  0  0  0
  7  8  1  0  0  0  0
  7 26  1  0  0  0  0
  7 27  1  0  0  0  0
  8  9  1  0  0  0  0
  8 28  1  0  0  0  0
  8 29  1  0  0  0  0
  9 10  1  0  0  0  0
  9 30  1  0  0  0  0
  9 31  1  0  0  0  0
 10 11  1  0  0  0  0
 10 32  1  0  0  0  0
 10 33  1  0  0  0  0
 11 12  2  0  0  0  0
 11 34  1  0  0  0  0
 12 13  1  0  0  0  0
 12 35  1  0  0  0  0
 13 14  1  0  0  0  0
 13 36  1  0  0  0  0
 13 37  1  0  0  0  0
 14 15  1  0  0  0  0
 14 38  1  0  0  0  0
 14 39  1  0  0  0  0
 15 16  1  0  0  0  0
 15 40  1  0  0  0  0
 15 41  1  0  0  0  0
 16 17  1  0  0  0  0
 16 42  1  0  0  0  0
 16 43  1  0  0  0  0
 17 18  1  0  0  0  0
 17 44  1  0  0  0  0
 17 45  1  0  0  0  0
 18 46  1  0  0  0  0
 18 47  1  0  0  0  0
 18 48  1  0  0  0  0
M  END
$$$$