/media/chris/experiments/cd1a-new-docking/inputs/ligands/4x6d_2_ligand.pdb
 OpenBabel07012320263D

 48 47  0  0  0  0  0  0  0  0999 V2000
  -51.1850   53.1774   65.9066 C   0  0  0  0  0  0  0  0  0  0  0  0
  -50.8695   52.0285   65.5403 O   0  0  0  0  0  0  0  0  0  0  0  0
  -51.8239   54.1332   64.9300 C   0  0  0  0  0  0  0  0  0  0  0  0
  -50.9656   53.5119   67.0902 O   0  0  0  0  0  0  0  0  0  0  0  0
  -51.4369   55.5563   65.2998 C   0  0  0  0  0  0  0  0  0  0  0  0
  -49.9342   55.7639   65.2417 C   0  0  0  0  0  0  0  0  0  0  0  0
  -49.6179   57.1967   65.6381 C   0  0  0  0  0  0  0  0  0  0  0  0
  -48.1197   57.4400   65.5725 C   0  0  0  0  0  0  0  0  0  0  0  0
  -47.7410   58.8580   65.9770 C   0  0  0  0  0  0  0  0  0  0  0  0
  -48.4570   59.8040   65.0240 C   0  0  0  0  0  0  0  0  0  0  0  0
  -49.9570   59.6540   65.1090 C   0  0  0  0  0  0  0  0  0  0  0  0
  -50.7188   60.4801   66.0590 C   0  0  0  0  0  0  0  0  0  0  0  0
  -49.9693   61.2990   67.0798 C   0  0  0  0  0  0  0  0  0  0  0  0
  -49.7566   60.5009   68.3615 C   0  0  0  0  0  0  0  0  0  0  0  0
  -49.0118   61.3460   69.3946 C   0  0  0  0  0  0  0  0  0  0  0  0
  -47.6484   61.8011   68.8764 C   0  0  0  0  0  0  0  0  0  0  0  0
  -46.7505   60.6152   68.5149 C   0  0  0  0  0  0  0  0  0  0  0  0
  -45.3750   61.0433   68.0102 C   0  0  0  0  0  0  0  0  0  0  0  0
  -52.8880   54.0293   64.9712 H   0  0  0  0  0  0  0  0  0  0  0  0
  -51.4862   53.9143   63.9385 H   0  0  0  0  0  0  0  0  0  0  0  0
  -51.1956   54.3712   67.3845 H   0  0  0  0  0  0  0  0  0  0  0  0
  -51.7768   55.7608   66.2935 H   0  0  0  0  0  0  0  0  0  0  0  0
  -51.8922   56.2194   64.5941 H   0  0  0  0  0  0  0  0  0  0  0  0
  -49.5849   55.5813   64.2470 H   0  0  0  0  0  0  0  0  0  0  0  0
  -49.4491   55.0870   65.9136 H   0  0  0  0  0  0  0  0  0  0  0  0
  -49.9611   57.3712   66.6364 H   0  0  0  0  0  0  0  0  0  0  0  0
  -50.1101   57.8633   64.9611 H   0  0  0  0  0  0  0  0  0  0  0  0
  -47.7878   57.2690   64.5698 H   0  0  0  0  0  0  0  0  0  0  0  0
  -47.6509   56.7692   66.2619 H   0  0  0  0  0  0  0  0  0  0  0  0
  -46.6822   58.9911   65.8990 H   0  0  0  0  0  0  0  0  0  0  0  0
  -48.0249   59.0527   66.9901 H   0  0  0  0  0  0  0  0  0  0  0  0
  -48.1435   59.5908   64.0234 H   0  0  0  0  0  0  0  0  0  0  0  0
  -48.2063   60.8071   65.2994 H   0  0  0  0  0  0  0  0  0  0  0  0
  -50.4455   58.9755   64.5039 H   0  0  0  0  0  0  0  0  0  0  0  0
  -51.7502   60.4989   66.0272 H   0  0  0  0  0  0  0  0  0  0  0  0
  -50.5323   62.1807   67.3046 H   0  0  0  0  0  0  0  0  0  0  0  0
  -49.0138   61.5610   66.6757 H   0  0  0  0  0  0  0  0  0  0  0  0
  -49.1821   59.6255   68.1411 H   0  0  0  0  0  0  0  0  0  0  0  0
  -50.7096   60.2227   68.7607 H   0  0  0  0  0  0  0  0  0  0  0  0
  -48.8691   60.7637   70.2809 H   0  0  0  0  0  0  0  0  0  0  0  0
  -49.5988   62.2171   69.5983 H   0  0  0  0  0  0  0  0  0  0  0  0
  -47.1661   62.3816   69.6350 H   0  0  0  0  0  0  0  0  0  0  0  0
  -47.8066   62.3797   67.9903 H   0  0  0  0  0  0  0  0  0  0  0  0
  -47.2321   60.0432   67.7495 H   0  0  0  0  0  0  0  0  0  0  0  0
  -46.6013   60.0421   69.4061 H   0  0  0  0  0  0  0  0  0  0  0  0
  -45.4869   61.6207   67.1164 H   0  0  0  0  0  0  0  0  0  0  0  0
  -44.7852   60.1750   67.8025 H   0  0  0  0  0  0  0  0  0  0  0  0
  -44.8887   61.6342   68.7580 H   0  0  0  0  0  0  0  0  0  0  0  0
  1  2  2  0  0  0  0
  1  3  1  0  0  0  0
  1  4  1  0  0  0  0
  3  5  1  0  0  0  0
  3 19  1  0  0  0  0
  3 20  1  0  0  0  0
  4 21  1  0  0  0  0
  5  6  1  0  0  0  0
  5 22  1  0  0  0  0
  5 23  1  0  0  0  0
  6  7  1  0  0  0  0
  6 24  1  0  0  0  0
  6 25  1  0  0  0  0
  7  8  1  0  0  0  0
  7 26  1  0  0  0  0
  7 27  1  0  0  0  0
  8  9  1  0  0  0  0
  8 28  1  0  0  0  0
  8 29  1  0  0  0  0
  9 10  1  0  0  0  0
  9 30  1  0  0  0  0
  9 31  1  0  0  0  0
 10 11  1  0  0  0  0
 10 32  1  0  0  0  0
 10 33  1  0  0  0  0
 11 12  2  0  0  0  0
 11 34  1  0  0  0  0
 12 13  1  0  0  0  0
 12 35  1  0  0  0  0
 13 14  1  0  0  0  0
 13 36  1  0  0  0  0
 13 37  1  0  0  0  0
 14 15  1  0  0  0  0
 14 38  1  0  0  0  0
 14 39  1  0  0  0  0
 15 16  1  0  0  0  0
 15 40  1  0  0  0  0
 15 41  1  0  0  0  0
 16 17  1  0  0  0  0
 16 42  1  0  0  0  0
 16 43  1  0  0  0  0
 17 18  1  0  0  0  0
 17 44  1  0  0  0  0
 17 45  1  0  0  0  0
 18 46  1  0  0  0  0
 18 47  1  0  0  0  0
 18 48  1  0  0  0  0
M  END
$$$$