/media/chris/experiments/cd1a-new-docking/inputs/ligands/4x6d_2_ligand.pdb
 OpenBabel07012320263D

 48 47  0  0  0  0  0  0  0  0999 V2000
  -49.7737   56.2528   61.4443 C   0  0  0  0  0  0  0  0  0  0  0  0
  -50.3318   55.9483   62.5164 O   0  0  0  0  0  0  0  0  0  0  0  0
  -48.2696   56.3456   61.3749 C   0  0  0  0  0  0  0  0  0  0  0  0
  -50.4827   56.4722   60.4393 O   0  0  0  0  0  0  0  0  0  0  0  0
  -47.6638   55.3810   62.3820 C   0  0  0  0  0  0  0  0  0  0  0  0
  -48.1147   55.6897   63.7983 C   0  0  0  0  0  0  0  0  0  0  0  0
  -47.6965   57.1075   64.1518 C   0  0  0  0  0  0  0  0  0  0  0  0
  -48.1197   57.4400   65.5725 C   0  0  0  0  0  0  0  0  0  0  0  0
  -47.7410   58.8580   65.9770 C   0  0  0  0  0  0  0  0  0  0  0  0
  -48.4570   59.8040   65.0240 C   0  0  0  0  0  0  0  0  0  0  0  0
  -49.9570   59.6540   65.1090 C   0  0  0  0  0  0  0  0  0  0  0  0
  -50.7188   60.4801   66.0590 C   0  0  0  0  0  0  0  0  0  0  0  0
  -49.9693   61.2990   67.0798 C   0  0  0  0  0  0  0  0  0  0  0  0
  -50.7922   61.4588   68.3534 C   0  0  0  0  0  0  0  0  0  0  0  0
  -51.0829   60.0915   68.9717 C   0  0  0  0  0  0  0  0  0  0  0  0
  -51.8517   59.1874   68.0094 C   0  0  0  0  0  0  0  0  0  0  0  0
  -52.1599   57.8230   68.6314 C   0  0  0  0  0  0  0  0  0  0  0  0
  -50.9037   57.0626   69.0483 C   0  0  0  0  0  0  0  0  0  0  0  0
  -47.9614   57.3440   61.6050 H   0  0  0  0  0  0  0  0  0  0  0  0
  -47.9383   56.0924   60.3895 H   0  0  0  0  0  0  0  0  0  0  0  0
  -50.0818   56.7024   59.6243 H   0  0  0  0  0  0  0  0  0  0  0  0
  -46.5974   55.4545   62.3341 H   0  0  0  0  0  0  0  0  0  0  0  0
  -47.9921   54.3928   62.1359 H   0  0  0  0  0  0  0  0  0  0  0  0
  -47.6587   55.0009   64.4783 H   0  0  0  0  0  0  0  0  0  0  0  0
  -49.1786   55.5984   63.8674 H   0  0  0  0  0  0  0  0  0  0  0  0
  -48.1623   57.7927   63.4747 H   0  0  0  0  0  0  0  0  0  0  0  0
  -46.6321   57.1868   64.0766 H   0  0  0  0  0  0  0  0  0  0  0  0
  -47.6440   56.7537   66.2417 H   0  0  0  0  0  0  0  0  0  0  0  0
  -49.1857   57.3618   65.6210 H   0  0  0  0  0  0  0  0  0  0  0  0
  -46.6822   58.9911   65.8990 H   0  0  0  0  0  0  0  0  0  0  0  0
  -48.0249   59.0527   66.9901 H   0  0  0  0  0  0  0  0  0  0  0  0
  -48.1435   59.5908   64.0234 H   0  0  0  0  0  0  0  0  0  0  0  0
  -48.2063   60.8071   65.2994 H   0  0  0  0  0  0  0  0  0  0  0  0
  -50.4455   58.9755   64.5039 H   0  0  0  0  0  0  0  0  0  0  0  0
  -51.7502   60.4989   66.0272 H   0  0  0  0  0  0  0  0  0  0  0  0
  -49.7632   62.2662   66.6713 H   0  0  0  0  0  0  0  0  0  0  0  0
  -49.0566   60.7953   67.3213 H   0  0  0  0  0  0  0  0  0  0  0  0
  -51.7166   61.9436   68.1180 H   0  0  0  0  0  0  0  0  0  0  0  0
  -50.2381   62.0473   69.0545 H   0  0  0  0  0  0  0  0  0  0  0  0
  -51.6655   60.2288   69.8586 H   0  0  0  0  0  0  0  0  0  0  0  0
  -50.1481   59.6214   69.1957 H   0  0  0  0  0  0  0  0  0  0  0  0
  -51.2634   59.0407   67.1278 H   0  0  0  0  0  0  0  0  0  0  0  0
  -52.7813   59.6639   67.7777 H   0  0  0  0  0  0  0  0  0  0  0  0
  -52.6936   57.2340   67.9151 H   0  0  0  0  0  0  0  0  0  0  0  0
  -52.7382   57.9963   69.5149 H   0  0  0  0  0  0  0  0  0  0  0  0
  -50.2997   56.8717   68.1860 H   0  0  0  0  0  0  0  0  0  0  0  0
  -51.1827   56.1341   69.5010 H   0  0  0  0  0  0  0  0  0  0  0  0
  -50.3482   57.6489   69.7501 H   0  0  0  0  0  0  0  0  0  0  0  0
  1  2  2  0  0  0  0
  1  3  1  0  0  0  0
  1  4  1  0  0  0  0
  3  5  1  0  0  0  0
  3 19  1  0  0  0  0
  3 20  1  0  0  0  0
  4 21  1  0  0  0  0
  5  6  1  0  0  0  0
  5 22  1  0  0  0  0
  5 23  1  0  0  0  0
  6  7  1  0  0  0  0
  6 24  1  0  0  0  0
  6 25  1  0  0  0  0
  7  8  1  0  0  0  0
  7 26  1  0  0  0  0
  7 27  1  0  0  0  0
  8  9  1  0  0  0  0
  8 28  1  0  0  0  0
  8 29  1  0  0  0  0
  9 10  1  0  0  0  0
  9 30  1  0  0  0  0
  9 31  1  0  0  0  0
 10 11  1  0  0  0  0
 10 32  1  0  0  0  0
 10 33  1  0  0  0  0
 11 12  2  0  0  0  0
 11 34  1  0  0  0  0
 12 13  1  0  0  0  0
 12 35  1  0  0  0  0
 13 14  1  0  0  0  0
 13 36  1  0  0  0  0
 13 37  1  0  0  0  0
 14 15  1  0  0  0  0
 14 38  1  0  0  0  0
 14 39  1  0  0  0  0
 15 16  1  0  0  0  0
 15 40  1  0  0  0  0
 15 41  1  0  0  0  0
 16 17  1  0  0  0  0
 16 42  1  0  0  0  0
 16 43  1  0  0  0  0
 17 18  1  0  0  0  0
 17 44  1  0  0  0  0
 17 45  1  0  0  0  0
 18 46  1  0  0  0  0
 18 47  1  0  0  0  0
 18 48  1  0  0  0  0
M  END
$$$$