/media/chris/experiments/cd1a-new-docking/inputs/ligands/4x6d_2_ligand.pdb
 OpenBabel07012320263D

 48 47  0  0  0  0  0  0  0  0999 V2000
  -43.5648   57.6939   65.2776 C   0  0  0  0  0  0  0  0  0  0  0  0
  -42.3521   57.9819   65.2739 O   0  0  0  0  0  0  0  0  0  0  0  0
  -44.0133   56.3067   64.8901 C   0  0  0  0  0  0  0  0  0  0  0  0
  -44.3894   58.5712   65.6109 O   0  0  0  0  0  0  0  0  0  0  0  0
  -45.5302   56.2346   64.9637 C   0  0  0  0  0  0  0  0  0  0  0  0
  -46.1871   57.2204   64.0143 C   0  0  0  0  0  0  0  0  0  0  0  0
  -47.6965   57.1075   64.1518 C   0  0  0  0  0  0  0  0  0  0  0  0
  -48.1197   57.4400   65.5725 C   0  0  0  0  0  0  0  0  0  0  0  0
  -47.7410   58.8580   65.9770 C   0  0  0  0  0  0  0  0  0  0  0  0
  -48.4570   59.8040   65.0240 C   0  0  0  0  0  0  0  0  0  0  0  0
  -49.9570   59.6540   65.1090 C   0  0  0  0  0  0  0  0  0  0  0  0
  -50.7186   59.2616   63.9126 C   0  0  0  0  0  0  0  0  0  0  0  0
  -50.0176   59.2310   62.5777 C   0  0  0  0  0  0  0  0  0  0  0  0
  -50.6820   60.1909   61.5969 C   0  0  0  0  0  0  0  0  0  0  0  0
  -50.6148   61.6224   62.1285 C   0  0  0  0  0  0  0  0  0  0  0  0
  -51.2876   62.6112   61.1776 C   0  0  0  0  0  0  0  0  0  0  0  0
  -51.2072   64.0485   61.6984 C   0  0  0  0  0  0  0  0  0  0  0  0
  -51.8878   65.0545   60.7739 C   0  0  0  0  0  0  0  0  0  0  0  0
  -43.5877   55.5917   65.5628 H   0  0  0  0  0  0  0  0  0  0  0  0
  -43.6904   56.0891   63.8935 H   0  0  0  0  0  0  0  0  0  0  0  0
  -45.3054   58.3740   65.6199 H   0  0  0  0  0  0  0  0  0  0  0  0
  -45.8397   56.4576   65.9634 H   0  0  0  0  0  0  0  0  0  0  0  0
  -45.8309   55.2478   64.6796 H   0  0  0  0  0  0  0  0  0  0  0  0
  -45.9005   56.9952   63.0083 H   0  0  0  0  0  0  0  0  0  0  0  0
  -45.8753   58.2156   64.2533 H   0  0  0  0  0  0  0  0  0  0  0  0
  -47.9991   56.1084   63.9174 H   0  0  0  0  0  0  0  0  0  0  0  0
  -48.1612   57.7971   63.4784 H   0  0  0  0  0  0  0  0  0  0  0  0
  -47.6440   56.7537   66.2417 H   0  0  0  0  0  0  0  0  0  0  0  0
  -49.1857   57.3618   65.6210 H   0  0  0  0  0  0  0  0  0  0  0  0
  -46.6822   58.9911   65.8990 H   0  0  0  0  0  0  0  0  0  0  0  0
  -48.0249   59.0527   66.9901 H   0  0  0  0  0  0  0  0  0  0  0  0
  -48.1435   59.5908   64.0234 H   0  0  0  0  0  0  0  0  0  0  0  0
  -48.2063   60.8071   65.2994 H   0  0  0  0  0  0  0  0  0  0  0  0
  -50.4456   59.8258   66.0016 H   0  0  0  0  0  0  0  0  0  0  0  0
  -51.7171   59.0111   63.9859 H   0  0  0  0  0  0  0  0  0  0  0  0
  -50.0609   58.2382   62.1811 H   0  0  0  0  0  0  0  0  0  0  0  0
  -49.0002   59.5316   62.7169 H   0  0  0  0  0  0  0  0  0  0  0  0
  -51.7063   59.9102   61.4671 H   0  0  0  0  0  0  0  0  0  0  0  0
  -50.1675   60.1429   60.6599 H   0  0  0  0  0  0  0  0  0  0  0  0
  -49.5884   61.9001   62.2480 H   0  0  0  0  0  0  0  0  0  0  0  0
  -51.1325   61.6551   63.0644 H   0  0  0  0  0  0  0  0  0  0  0  0
  -52.3169   62.3401   61.0680 H   0  0  0  0  0  0  0  0  0  0  0  0
  -50.7758   62.5694   60.2389 H   0  0  0  0  0  0  0  0  0  0  0  0
  -50.1765   64.3185   61.7971 H   0  0  0  0  0  0  0  0  0  0  0  0
  -51.7187   64.0786   62.6377 H   0  0  0  0  0  0  0  0  0  0  0  0
  -51.3998   65.0508   59.8216 H   0  0  0  0  0  0  0  0  0  0  0  0
  -51.8248   66.0327   61.2031 H   0  0  0  0  0  0  0  0  0  0  0  0
  -52.9158   64.7854   60.6490 H   0  0  0  0  0  0  0  0  0  0  0  0
  1  2  2  0  0  0  0
  1  3  1  0  0  0  0
  1  4  1  0  0  0  0
  3  5  1  0  0  0  0
  3 19  1  0  0  0  0
  3 20  1  0  0  0  0
  4 21  1  0  0  0  0
  5  6  1  0  0  0  0
  5 22  1  0  0  0  0
  5 23  1  0  0  0  0
  6  7  1  0  0  0  0
  6 24  1  0  0  0  0
  6 25  1  0  0  0  0
  7  8  1  0  0  0  0
  7 26  1  0  0  0  0
  7 27  1  0  0  0  0
  8  9  1  0  0  0  0
  8 28  1  0  0  0  0
  8 29  1  0  0  0  0
  9 10  1  0  0  0  0
  9 30  1  0  0  0  0
  9 31  1  0  0  0  0
 10 11  1  0  0  0  0
 10 32  1  0  0  0  0
 10 33  1  0  0  0  0
 11 12  2  0  0  0  0
 11 34  1  0  0  0  0
 12 13  1  0  0  0  0
 12 35  1  0  0  0  0
 13 14  1  0  0  0  0
 13 36  1  0  0  0  0
 13 37  1  0  0  0  0
 14 15  1  0  0  0  0
 14 38  1  0  0  0  0
 14 39  1  0  0  0  0
 15 16  1  0  0  0  0
 15 40  1  0  0  0  0
 15 41  1  0  0  0  0
 16 17  1  0  0  0  0
 16 42  1  0  0  0  0
 16 43  1  0  0  0  0
 17 18  1  0  0  0  0
 17 44  1  0  0  0  0
 17 45  1  0  0  0  0
 18 46  1  0  0  0  0
 18 47  1  0  0  0  0
 18 48  1  0  0  0  0
M  END
$$$$