/media/chris/experiments/cd1a-new-docking/inputs/ligands/4x6d_2_ligand.pdb
 OpenBabel07012320263D

 48 47  0  0  0  0  0  0  0  0999 V2000
  -47.1615   52.3788   65.4746 C   0  0  0  0  0  0  0  0  0  0  0  0
  -46.9340   52.7930   66.6281 O   0  0  0  0  0  0  0  0  0  0  0  0
  -47.8252   53.2816   64.4647 C   0  0  0  0  0  0  0  0  0  0  0  0
  -46.8258   51.2125   65.1782 O   0  0  0  0  0  0  0  0  0  0  0  0
  -47.4618   54.7256   64.7722 C   0  0  0  0  0  0  0  0  0  0  0  0
  -48.1147   55.6897   63.7983 C   0  0  0  0  0  0  0  0  0  0  0  0
  -47.6965   57.1075   64.1518 C   0  0  0  0  0  0  0  0  0  0  0  0
  -48.1197   57.4400   65.5725 C   0  0  0  0  0  0  0  0  0  0  0  0
  -47.7410   58.8580   65.9770 C   0  0  0  0  0  0  0  0  0  0  0  0
  -48.4570   59.8040   65.0240 C   0  0  0  0  0  0  0  0  0  0  0  0
  -49.9570   59.6540   65.1090 C   0  0  0  0  0  0  0  0  0  0  0  0
  -50.7186   59.2616   63.9126 C   0  0  0  0  0  0  0  0  0  0  0  0
  -50.0176   59.2310   62.5777 C   0  0  0  0  0  0  0  0  0  0  0  0
  -50.6306   58.1701   61.6702 C   0  0  0  0  0  0  0  0  0  0  0  0
  -50.5230   56.7906   62.3197 C   0  0  0  0  0  0  0  0  0  0  0  0
  -51.1129   55.6983   61.4289 C   0  0  0  0  0  0  0  0  0  0  0  0
  -51.0227   54.3175   62.0836 C   0  0  0  0  0  0  0  0  0  0  0  0
  -51.7841   54.2350   63.4040 C   0  0  0  0  0  0  0  0  0  0  0  0
  -48.8869   53.1601   64.5189 H   0  0  0  0  0  0  0  0  0  0  0  0
  -47.4910   53.0279   63.4804 H   0  0  0  0  0  0  0  0  0  0  0  0
  -46.9884   50.8829   64.3163 H   0  0  0  0  0  0  0  0  0  0  0  0
  -46.3994   54.8364   64.7098 H   0  0  0  0  0  0  0  0  0  0  0  0
  -47.8148   54.9556   65.7558 H   0  0  0  0  0  0  0  0  0  0  0  0
  -49.1790   55.6021   63.8657 H   0  0  0  0  0  0  0  0  0  0  0  0
  -47.8064   55.4598   62.7998 H   0  0  0  0  0  0  0  0  0  0  0  0
  -48.1623   57.7927   63.4747 H   0  0  0  0  0  0  0  0  0  0  0  0
  -46.6321   57.1868   64.0766 H   0  0  0  0  0  0  0  0  0  0  0  0
  -47.6440   56.7537   66.2417 H   0  0  0  0  0  0  0  0  0  0  0  0
  -49.1857   57.3618   65.6210 H   0  0  0  0  0  0  0  0  0  0  0  0
  -46.6822   58.9911   65.8990 H   0  0  0  0  0  0  0  0  0  0  0  0
  -48.0249   59.0527   66.9901 H   0  0  0  0  0  0  0  0  0  0  0  0
  -48.1435   59.5908   64.0234 H   0  0  0  0  0  0  0  0  0  0  0  0
  -48.2063   60.8071   65.2994 H   0  0  0  0  0  0  0  0  0  0  0  0
  -50.4456   59.8258   66.0016 H   0  0  0  0  0  0  0  0  0  0  0  0
  -51.7171   59.0111   63.9859 H   0  0  0  0  0  0  0  0  0  0  0  0
  -48.9824   59.0073   62.7298 H   0  0  0  0  0  0  0  0  0  0  0  0
  -50.1264   60.1874   62.1104 H   0  0  0  0  0  0  0  0  0  0  0  0
  -50.1101   58.1617   60.7353 H   0  0  0  0  0  0  0  0  0  0  0  0
  -51.6633   58.4012   61.5124 H   0  0  0  0  0  0  0  0  0  0  0  0
  -51.0524   56.8031   63.2495 H   0  0  0  0  0  0  0  0  0  0  0  0
  -49.4863   56.5734   62.4712 H   0  0  0  0  0  0  0  0  0  0  0  0
  -50.5754   55.6784   60.5039 H   0  0  0  0  0  0  0  0  0  0  0  0
  -52.1469   55.9229   61.2693 H   0  0  0  0  0  0  0  0  0  0  0  0
  -49.9928   54.0943   62.2689 H   0  0  0  0  0  0  0  0  0  0  0  0
  -51.4682   53.6140   61.4117 H   0  0  0  0  0  0  0  0  0  0  0  0
  -51.3635   54.9282   64.1022 H   0  0  0  0  0  0  0  0  0  0  0  0
  -51.7093   53.2428   63.7974 H   0  0  0  0  0  0  0  0  0  0  0  0
  -52.8132   54.4762   63.2380 H   0  0  0  0  0  0  0  0  0  0  0  0
  1  2  2  0  0  0  0
  1  3  1  0  0  0  0
  1  4  1  0  0  0  0
  3  5  1  0  0  0  0
  3 19  1  0  0  0  0
  3 20  1  0  0  0  0
  4 21  1  0  0  0  0
  5  6  1  0  0  0  0
  5 22  1  0  0  0  0
  5 23  1  0  0  0  0
  6  7  1  0  0  0  0
  6 24  1  0  0  0  0
  6 25  1  0  0  0  0
  7  8  1  0  0  0  0
  7 26  1  0  0  0  0
  7 27  1  0  0  0  0
  8  9  1  0  0  0  0
  8 28  1  0  0  0  0
  8 29  1  0  0  0  0
  9 10  1  0  0  0  0
  9 30  1  0  0  0  0
  9 31  1  0  0  0  0
 10 11  1  0  0  0  0
 10 32  1  0  0  0  0
 10 33  1  0  0  0  0
 11 12  2  0  0  0  0
 11 34  1  0  0  0  0
 12 13  1  0  0  0  0
 12 35  1  0  0  0  0
 13 14  1  0  0  0  0
 13 36  1  0  0  0  0
 13 37  1  0  0  0  0
 14 15  1  0  0  0  0
 14 38  1  0  0  0  0
 14 39  1  0  0  0  0
 15 16  1  0  0  0  0
 15 40  1  0  0  0  0
 15 41  1  0  0  0  0
 16 17  1  0  0  0  0
 16 42  1  0  0  0  0
 16 43  1  0  0  0  0
 17 18  1  0  0  0  0
 17 44  1  0  0  0  0
 17 45  1  0  0  0  0
 18 46  1  0  0  0  0
 18 47  1  0  0  0  0
 18 48  1  0  0  0  0
M  END
$$$$