/media/chris/experiments/cd1a-new-docking/inputs/ligands/4x6d_2_ligand.pdb
 OpenBabel07012320263D

 48 47  0  0  0  0  0  0  0  0999 V2000
  -51.3248   54.8903   67.6735 C   0  0  0  0  0  0  0  0  0  0  0  0
  -50.1622   54.4909   67.4672 O   0  0  0  0  0  0  0  0  0  0  0  0
  -51.9892   55.8225   66.6911 C   0  0  0  0  0  0  0  0  0  0  0  0
  -51.9206   54.5000   68.6999 O   0  0  0  0  0  0  0  0  0  0  0  0
  -51.4369   55.5563   65.2998 C   0  0  0  0  0  0  0  0  0  0  0  0
  -49.9342   55.7639   65.2417 C   0  0  0  0  0  0  0  0  0  0  0  0
  -49.6179   57.1967   65.6381 C   0  0  0  0  0  0  0  0  0  0  0  0
  -48.1197   57.4400   65.5725 C   0  0  0  0  0  0  0  0  0  0  0  0
  -47.7410   58.8580   65.9770 C   0  0  0  0  0  0  0  0  0  0  0  0
  -48.4570   59.8040   65.0240 C   0  0  0  0  0  0  0  0  0  0  0  0
  -49.9570   59.6540   65.1090 C   0  0  0  0  0  0  0  0  0  0  0  0
  -50.7188   60.4801   66.0590 C   0  0  0  0  0  0  0  0  0  0  0  0
  -49.9693   61.2990   67.0798 C   0  0  0  0  0  0  0  0  0  0  0  0
  -50.7922   61.4588   68.3534 C   0  0  0  0  0  0  0  0  0  0  0  0
  -51.0829   60.0915   68.9717 C   0  0  0  0  0  0  0  0  0  0  0  0
  -51.9220   60.2123   70.2429 C   0  0  0  0  0  0  0  0  0  0  0  0
  -52.2006   58.8460   70.8746 C   0  0  0  0  0  0  0  0  0  0  0  0
  -52.9461   57.8990   69.9379 C   0  0  0  0  0  0  0  0  0  0  0  0
  -51.7890   56.8365   66.9680 H   0  0  0  0  0  0  0  0  0  0  0  0
  -53.0463   55.6575   66.6966 H   0  0  0  0  0  0  0  0  0  0  0  0
  -52.7950   54.7891   68.8726 H   0  0  0  0  0  0  0  0  0  0  0  0
  -51.9059   56.2237   64.6073 H   0  0  0  0  0  0  0  0  0  0  0  0
  -51.6421   54.5365   65.0494 H   0  0  0  0  0  0  0  0  0  0  0  0
  -49.5849   55.5813   64.2470 H   0  0  0  0  0  0  0  0  0  0  0  0
  -49.4491   55.0870   65.9136 H   0  0  0  0  0  0  0  0  0  0  0  0
  -49.9611   57.3712   66.6364 H   0  0  0  0  0  0  0  0  0  0  0  0
  -50.1101   57.8633   64.9611 H   0  0  0  0  0  0  0  0  0  0  0  0
  -47.7878   57.2690   64.5698 H   0  0  0  0  0  0  0  0  0  0  0  0
  -47.6509   56.7692   66.2619 H   0  0  0  0  0  0  0  0  0  0  0  0
  -46.6822   58.9911   65.8990 H   0  0  0  0  0  0  0  0  0  0  0  0
  -48.0249   59.0527   66.9901 H   0  0  0  0  0  0  0  0  0  0  0  0
  -48.1435   59.5908   64.0234 H   0  0  0  0  0  0  0  0  0  0  0  0
  -48.2063   60.8071   65.2994 H   0  0  0  0  0  0  0  0  0  0  0  0
  -50.4455   58.9755   64.5039 H   0  0  0  0  0  0  0  0  0  0  0  0
  -51.7502   60.4989   66.0272 H   0  0  0  0  0  0  0  0  0  0  0  0
  -49.7632   62.2662   66.6713 H   0  0  0  0  0  0  0  0  0  0  0  0
  -49.0566   60.7953   67.3213 H   0  0  0  0  0  0  0  0  0  0  0  0
  -51.7166   61.9436   68.1180 H   0  0  0  0  0  0  0  0  0  0  0  0
  -50.2381   62.0473   69.0545 H   0  0  0  0  0  0  0  0  0  0  0  0
  -50.1552   59.6157   69.2126 H   0  0  0  0  0  0  0  0  0  0  0  0
  -51.6365   59.5149   68.2604 H   0  0  0  0  0  0  0  0  0  0  0  0
  -52.8543   60.6773   69.9991 H   0  0  0  0  0  0  0  0  0  0  0  0
  -51.3718   60.7983   70.9491 H   0  0  0  0  0  0  0  0  0  0  0  0
  -52.7916   58.9910   71.7547 H   0  0  0  0  0  0  0  0  0  0  0  0
  -51.2554   58.3974   71.0989 H   0  0  0  0  0  0  0  0  0  0  0  0
  -53.8995   58.3179   69.6920 H   0  0  0  0  0  0  0  0  0  0  0  0
  -53.0855   56.9550   70.4219 H   0  0  0  0  0  0  0  0  0  0  0  0
  -52.3760   57.7603   69.0431 H   0  0  0  0  0  0  0  0  0  0  0  0
  1  2  2  0  0  0  0
  1  3  1  0  0  0  0
  1  4  1  0  0  0  0
  3  5  1  0  0  0  0
  3 19  1  0  0  0  0
  3 20  1  0  0  0  0
  4 21  1  0  0  0  0
  5  6  1  0  0  0  0
  5 22  1  0  0  0  0
  5 23  1  0  0  0  0
  6  7  1  0  0  0  0
  6 24  1  0  0  0  0
  6 25  1  0  0  0  0
  7  8  1  0  0  0  0
  7 26  1  0  0  0  0
  7 27  1  0  0  0  0
  8  9  1  0  0  0  0
  8 28  1  0  0  0  0
  8 29  1  0  0  0  0
  9 10  1  0  0  0  0
  9 30  1  0  0  0  0
  9 31  1  0  0  0  0
 10 11  1  0  0  0  0
 10 32  1  0  0  0  0
 10 33  1  0  0  0  0
 11 12  2  0  0  0  0
 11 34  1  0  0  0  0
 12 13  1  0  0  0  0
 12 35  1  0  0  0  0
 13 14  1  0  0  0  0
 13 36  1  0  0  0  0
 13 37  1  0  0  0  0
 14 15  1  0  0  0  0
 14 38  1  0  0  0  0
 14 39  1  0  0  0  0
 15 16  1  0  0  0  0
 15 40  1  0  0  0  0
 15 41  1  0  0  0  0
 16 17  1  0  0  0  0
 16 42  1  0  0  0  0
 16 43  1  0  0  0  0
 17 18  1  0  0  0  0
 17 44  1  0  0  0  0
 17 45  1  0  0  0  0
 18 46  1  0  0  0  0
 18 47  1  0  0  0  0
 18 48  1  0  0  0  0
M  END
$$$$