/media/chris/experiments/cd1a-new-docking/inputs/ligands/6nux_ligand.pdb
 OpenBabel07022319323D

 42 41  0  0  0  0  0  0  0  0999 V2000
  -46.0828   58.0603   68.1406 C   0  0  0  0  0  0  0  0  0  0  0  0
  -41.2358   52.1030   63.9651 O   0  0  0  0  0  0  0  0  0  0  0  0
  -45.4329   57.0123   68.9914 C   0  0  0  0  0  0  0  0  0  0  0  0
  -46.0260   56.6666   70.3241 C   0  0  0  0  0  0  0  0  0  0  0  0
  -44.3238   56.3884   68.5674 C   0  0  0  0  0  0  0  0  0  0  0  0
  -43.7163   56.7289   67.2260 C   0  0  0  0  0  0  0  0  0  0  0  0
  -44.7960   57.1870   66.2510 C   0  0  0  0  0  0  0  0  0  0  0  0
  -44.1950   57.5130   64.9000 C   0  0  0  0  0  0  0  0  0  0  0  0
  -44.8100   58.5630   64.0190 C   0  0  0  0  0  0  0  0  0  0  0  0
  -43.0990   56.8650   64.4810 C   0  0  0  0  0  0  0  0  0  0  0  0
  -42.4910   57.1900   63.1360 C   0  0  0  0  0  0  0  0  0  0  0  0
  -42.4834   55.9507   62.2493 C   0  0  0  0  0  0  0  0  0  0  0  0
  -41.6852   54.8463   62.9079 C   0  0  0  0  0  0  0  0  0  0  0  0
  -40.4823   54.2854   62.2151 C   0  0  0  0  0  0  0  0  0  0  0  0
  -42.0419   54.3746   64.1116 C   0  0  0  0  0  0  0  0  0  0  0  0
  -41.2542   53.2753   64.7872 C   0  0  0  0  0  0  0  0  0  0  0  0
  -46.9479   58.4409   68.6422 H   0  0  0  0  0  0  0  0  0  0  0  0
  -46.3734   57.6304   67.2049 H   0  0  0  0  0  0  0  0  0  0  0  0
  -45.3913   58.8582   67.9671 H   0  0  0  0  0  0  0  0  0  0  0  0
  -40.7282   51.4052   64.4082 H   0  0  0  0  0  0  0  0  0  0  0  0
  -46.8999   57.2611   70.4906 H   0  0  0  0  0  0  0  0  0  0  0  0
  -45.3097   56.8617   71.0947 H   0  0  0  0  0  0  0  0  0  0  0  0
  -46.2917   55.6302   70.3382 H   0  0  0  0  0  0  0  0  0  0  0  0
  -43.8816   55.6700   69.1619 H   0  0  0  0  0  0  0  0  0  0  0  0
  -43.2291   55.8625   66.8301 H   0  0  0  0  0  0  0  0  0  0  0  0
  -43.0100   57.5219   67.3574 H   0  0  0  0  0  0  0  0  0  0  0  0
  -45.2747   58.0603   66.6422 H   0  0  0  0  0  0  0  0  0  0  0  0
  -45.5068   56.3965   66.1292 H   0  0  0  0  0  0  0  0  0  0  0  0
  -45.6701   58.9759   64.5033 H   0  0  0  0  0  0  0  0  0  0  0  0
  -45.1018   58.1219   63.0888 H   0  0  0  0  0  0  0  0  0  0  0  0
  -44.0961   59.3390   63.8373 H   0  0  0  0  0  0  0  0  0  0  0  0
  -42.6690   56.1419   65.0787 H   0  0  0  0  0  0  0  0  0  0  0  0
  -41.4865   57.5313   63.2752 H   0  0  0  0  0  0  0  0  0  0  0  0
  -43.0738   57.9535   62.6644 H   0  0  0  0  0  0  0  0  0  0  0  0
  -42.0409   56.1930   61.3057 H   0  0  0  0  0  0  0  0  0  0  0  0
  -43.4897   55.6172   62.1041 H   0  0  0  0  0  0  0  0  0  0  0  0
  -40.3510   54.7773   61.2740 H   0  0  0  0  0  0  0  0  0  0  0  0
  -40.6205   53.2368   62.0533 H   0  0  0  0  0  0  0  0  0  0  0  0
  -39.6156   54.4413   62.8230 H   0  0  0  0  0  0  0  0  0  0  0  0
  -42.8693   54.7694   64.5855 H   0  0  0  0  0  0  0  0  0  0  0  0
  -40.2505   53.6085   64.9500 H   0  0  0  0  0  0  0  0  0  0  0  0
  -41.7169   53.0385   65.7224 H   0  0  0  0  0  0  0  0  0  0  0  0
  1  3  1  0  0  0  0
  1 17  1  0  0  0  0
  1 18  1  0  0  0  0
  1 19  1  0  0  0  0
  2 16  1  0  0  0  0
  2 20  1  0  0  0  0
  3  4  1  0  0  0  0
  3  5  2  0  0  0  0
  4 21  1  0  0  0  0
  4 22  1  0  0  0  0
  4 23  1  0  0  0  0
  5  6  1  0  0  0  0
  5 24  1  0  0  0  0
  6  7  1  0  0  0  0
  6 25  1  0  0  0  0
  6 26  1  0  0  0  0
  7  8  1  0  0  0  0
  7 27  1  0  0  0  0
  7 28  1  0  0  0  0
  8  9  1  0  0  0  0
  8 10  2  0  0  0  0
  9 29  1  0  0  0  0
  9 30  1  0  0  0  0
  9 31  1  0  0  0  0
 10 11  1  0  0  0  0
 10 32  1  0  0  0  0
 11 12  1  0  0  0  0
 11 33  1  0  0  0  0
 11 34  1  0  0  0  0
 12 13  1  0  0  0  0
 12 35  1  0  0  0  0
 12 36  1  0  0  0  0
 13 14  1  0  0  0  0
 13 15  2  0  0  0  0
 14 37  1  0  0  0  0
 14 38  1  0  0  0  0
 14 39  1  0  0  0  0
 15 16  1  0  0  0  0
 15 40  1  0  0  0  0
 16 41  1  0  0  0  0
 16 42  1  0  0  0  0
M  END
$$$$