/media/chris/experiments/cd1a-new-docking/inputs/ligands/6nux_ligand.pdb
 OpenBabel07022319323D

 42 41  0  0  0  0  0  0  0  0999 V2000
  -45.1636   58.7000   68.7193 C   0  0  0  0  0  0  0  0  0  0  0  0
  -41.0168   59.9680   67.6810 O   0  0  0  0  0  0  0  0  0  0  0  0
  -45.0024   57.3131   69.2627 C   0  0  0  0  0  0  0  0  0  0  0  0
  -45.6000   56.9639   70.5925 C   0  0  0  0  0  0  0  0  0  0  0  0
  -44.3238   56.3884   68.5674 C   0  0  0  0  0  0  0  0  0  0  0  0
  -43.7163   56.7289   67.2260 C   0  0  0  0  0  0  0  0  0  0  0  0
  -44.7960   57.1870   66.2510 C   0  0  0  0  0  0  0  0  0  0  0  0
  -44.1950   57.5130   64.9000 C   0  0  0  0  0  0  0  0  0  0  0  0
  -44.8100   58.5630   64.0190 C   0  0  0  0  0  0  0  0  0  0  0  0
  -43.0990   56.8650   64.4810 C   0  0  0  0  0  0  0  0  0  0  0  0
  -42.4910   57.1900   63.1360 C   0  0  0  0  0  0  0  0  0  0  0  0
  -42.0598   58.6510   63.0933 C   0  0  0  0  0  0  0  0  0  0  0  0
  -41.0198   58.9165   64.1602 C   0  0  0  0  0  0  0  0  0  0  0  0
  -39.5670   58.7516   63.8380 C   0  0  0  0  0  0  0  0  0  0  0  0
  -41.3901   59.3083   65.3882 C   0  0  0  0  0  0  0  0  0  0  0  0
  -40.3656   59.5828   66.4653 C   0  0  0  0  0  0  0  0  0  0  0  0
  -45.7297   59.2899   69.4095 H   0  0  0  0  0  0  0  0  0  0  0  0
  -45.6767   58.6581   67.7813 H   0  0  0  0  0  0  0  0  0  0  0  0
  -44.1994   59.1423   68.5790 H   0  0  0  0  0  0  0  0  0  0  0  0
  -40.3503   60.1413   68.3640 H   0  0  0  0  0  0  0  0  0  0  0  0
  -46.0992   57.8204   70.9952 H   0  0  0  0  0  0  0  0  0  0  0  0
  -44.8245   56.6554   71.2621 H   0  0  0  0  0  0  0  0  0  0  0  0
  -46.3029   56.1666   70.4693 H   0  0  0  0  0  0  0  0  0  0  0  0
  -44.2156   55.4367   68.9514 H   0  0  0  0  0  0  0  0  0  0  0  0
  -43.2291   55.8625   66.8301 H   0  0  0  0  0  0  0  0  0  0  0  0
  -43.0100   57.5219   67.3574 H   0  0  0  0  0  0  0  0  0  0  0  0
  -45.2747   58.0603   66.6422 H   0  0  0  0  0  0  0  0  0  0  0  0
  -45.5068   56.3965   66.1292 H   0  0  0  0  0  0  0  0  0  0  0  0
  -45.6701   58.9759   64.5033 H   0  0  0  0  0  0  0  0  0  0  0  0
  -45.1018   58.1219   63.0888 H   0  0  0  0  0  0  0  0  0  0  0  0
  -44.0961   59.3390   63.8373 H   0  0  0  0  0  0  0  0  0  0  0  0
  -42.6690   56.1419   65.0787 H   0  0  0  0  0  0  0  0  0  0  0  0
  -43.2151   57.0125   62.3685 H   0  0  0  0  0  0  0  0  0  0  0  0
  -41.6343   56.5681   62.9804 H   0  0  0  0  0  0  0  0  0  0  0  0
  -42.9108   59.2765   63.2650 H   0  0  0  0  0  0  0  0  0  0  0  0
  -41.6394   58.8646   62.1329 H   0  0  0  0  0  0  0  0  0  0  0  0
  -39.4608   58.4363   62.8210 H   0  0  0  0  0  0  0  0  0  0  0  0
  -39.1392   58.0156   64.4862 H   0  0  0  0  0  0  0  0  0  0  0  0
  -39.0628   59.6852   63.9764 H   0  0  0  0  0  0  0  0  0  0  0  0
  -42.3930   59.4247   65.6018 H   0  0  0  0  0  0  0  0  0  0  0  0
  -39.7890   58.6982   66.6383 H   0  0  0  0  0  0  0  0  0  0  0  0
  -39.7264   60.3786   66.1444 H   0  0  0  0  0  0  0  0  0  0  0  0
  1  3  1  0  0  0  0
  1 17  1  0  0  0  0
  1 18  1  0  0  0  0
  1 19  1  0  0  0  0
  2 16  1  0  0  0  0
  2 20  1  0  0  0  0
  3  4  1  0  0  0  0
  3  5  2  0  0  0  0
  4 21  1  0  0  0  0
  4 22  1  0  0  0  0
  4 23  1  0  0  0  0
  5  6  1  0  0  0  0
  5 24  1  0  0  0  0
  6  7  1  0  0  0  0
  6 25  1  0  0  0  0
  6 26  1  0  0  0  0
  7  8  1  0  0  0  0
  7 27  1  0  0  0  0
  7 28  1  0  0  0  0
  8  9  1  0  0  0  0
  8 10  2  0  0  0  0
  9 29  1  0  0  0  0
  9 30  1  0  0  0  0
  9 31  1  0  0  0  0
 10 11  1  0  0  0  0
 10 32  1  0  0  0  0
 11 12  1  0  0  0  0
 11 33  1  0  0  0  0
 11 34  1  0  0  0  0
 12 13  1  0  0  0  0
 12 35  1  0  0  0  0
 12 36  1  0  0  0  0
 13 14  1  0  0  0  0
 13 15  2  0  0  0  0
 14 37  1  0  0  0  0
 14 38  1  0  0  0  0
 14 39  1  0  0  0  0
 15 16  1  0  0  0  0
 15 40  1  0  0  0  0
 16 41  1  0  0  0  0
 16 42  1  0  0  0  0
M  END
$$$$