/media/chris/experiments/cd1a-new-docking/inputs/ligands/6nux_ligand.pdb
 OpenBabel07022319323D

 42 41  0  0  0  0  0  0  0  0999 V2000
  -47.6004   57.9982   66.6004 C   0  0  0  0  0  0  0  0  0  0  0  0
  -38.2403   56.5197   65.4659 O   0  0  0  0  0  0  0  0  0  0  0  0
  -46.9608   59.3113   66.2668 C   0  0  0  0  0  0  0  0  0  0  0  0
  -47.7831   60.3996   65.6448 C   0  0  0  0  0  0  0  0  0  0  0  0
  -45.6588   59.5131   66.5180 C   0  0  0  0  0  0  0  0  0  0  0  0
  -44.8195   58.4232   67.1440 C   0  0  0  0  0  0  0  0  0  0  0  0
  -44.7960   57.1870   66.2510 C   0  0  0  0  0  0  0  0  0  0  0  0
  -44.1950   57.5130   64.9000 C   0  0  0  0  0  0  0  0  0  0  0  0
  -44.8100   58.5630   64.0190 C   0  0  0  0  0  0  0  0  0  0  0  0
  -43.0990   56.8650   64.4810 C   0  0  0  0  0  0  0  0  0  0  0  0
  -42.4910   57.1900   63.1360 C   0  0  0  0  0  0  0  0  0  0  0  0
  -41.4500   58.2932   63.2825 C   0  0  0  0  0  0  0  0  0  0  0  0
  -40.3407   57.8405   64.2071 C   0  0  0  0  0  0  0  0  0  0  0  0
  -38.9514   58.3630   64.0112 C   0  0  0  0  0  0  0  0  0  0  0  0
  -40.5960   56.9832   65.2065 C   0  0  0  0  0  0  0  0  0  0  0  0
  -39.5020   56.5234   66.1430 C   0  0  0  0  0  0  0  0  0  0  0  0
  -48.6352   58.0266   66.3298 H   0  0  0  0  0  0  0  0  0  0  0  0
  -47.5114   57.8148   67.6508 H   0  0  0  0  0  0  0  0  0  0  0  0
  -47.1114   57.2155   66.0590 H   0  0  0  0  0  0  0  0  0  0  0  0
  -37.5468   56.2233   66.0759 H   0  0  0  0  0  0  0  0  0  0  0  0
  -48.7899   60.0594   65.5208 H   0  0  0  0  0  0  0  0  0  0  0  0
  -47.3729   60.6554   64.6903 H   0  0  0  0  0  0  0  0  0  0  0  0
  -47.7733   61.2610   66.2796 H   0  0  0  0  0  0  0  0  0  0  0  0
  -45.2265   60.4199   66.2818 H   0  0  0  0  0  0  0  0  0  0  0  0
  -45.2340   58.1623   68.0954 H   0  0  0  0  0  0  0  0  0  0  0  0
  -43.8188   58.7827   67.2635 H   0  0  0  0  0  0  0  0  0  0  0  0
  -45.7967   56.8337   66.1141 H   0  0  0  0  0  0  0  0  0  0  0  0
  -44.1973   56.4349   66.7210 H   0  0  0  0  0  0  0  0  0  0  0  0
  -45.6701   58.9759   64.5033 H   0  0  0  0  0  0  0  0  0  0  0  0
  -45.1018   58.1219   63.0888 H   0  0  0  0  0  0  0  0  0  0  0  0
  -44.0961   59.3390   63.8373 H   0  0  0  0  0  0  0  0  0  0  0  0
  -42.6690   56.1419   65.0787 H   0  0  0  0  0  0  0  0  0  0  0  0
  -43.2615   57.5172   62.4695 H   0  0  0  0  0  0  0  0  0  0  0  0
  -42.0183   56.3132   62.7452 H   0  0  0  0  0  0  0  0  0  0  0  0
  -41.9150   59.1671   63.6887 H   0  0  0  0  0  0  0  0  0  0  0  0
  -41.0364   58.5150   62.3210 H   0  0  0  0  0  0  0  0  0  0  0  0
  -38.9356   59.0288   63.1738 H   0  0  0  0  0  0  0  0  0  0  0  0
  -38.2853   57.5456   63.8296 H   0  0  0  0  0  0  0  0  0  0  0  0
  -38.6405   58.8879   64.8902 H   0  0  0  0  0  0  0  0  0  0  0  0
  -41.5570   56.6310   65.3387 H   0  0  0  0  0  0  0  0  0  0  0  0
  -39.4516   57.1874   66.9806 H   0  0  0  0  0  0  0  0  0  0  0  0
  -39.7222   55.5308   66.4763 H   0  0  0  0  0  0  0  0  0  0  0  0
  1  3  1  0  0  0  0
  1 17  1  0  0  0  0
  1 18  1  0  0  0  0
  1 19  1  0  0  0  0
  2 16  1  0  0  0  0
  2 20  1  0  0  0  0
  3  4  1  0  0  0  0
  3  5  2  0  0  0  0
  4 21  1  0  0  0  0
  4 22  1  0  0  0  0
  4 23  1  0  0  0  0
  5  6  1  0  0  0  0
  5 24  1  0  0  0  0
  6  7  1  0  0  0  0
  6 25  1  0  0  0  0
  6 26  1  0  0  0  0
  7  8  1  0  0  0  0
  7 27  1  0  0  0  0
  7 28  1  0  0  0  0
  8  9  1  0  0  0  0
  8 10  2  0  0  0  0
  9 29  1  0  0  0  0
  9 30  1  0  0  0  0
  9 31  1  0  0  0  0
 10 11  1  0  0  0  0
 10 32  1  0  0  0  0
 11 12  1  0  0  0  0
 11 33  1  0  0  0  0
 11 34  1  0  0  0  0
 12 13  1  0  0  0  0
 12 35  1  0  0  0  0
 12 36  1  0  0  0  0
 13 14  1  0  0  0  0
 13 15  2  0  0  0  0
 14 37  1  0  0  0  0
 14 38  1  0  0  0  0
 14 39  1  0  0  0  0
 15 16  1  0  0  0  0
 15 40  1  0  0  0  0
 16 41  1  0  0  0  0
 16 42  1  0  0  0  0
M  END
$$$$