/media/chris/experiments/cd1a-new-docking/inputs/ligands/6nux_ligand.pdb
 OpenBabel07022319323D

 42 41  0  0  0  0  0  0  0  0999 V2000
  -45.1396   60.9544   68.4479 C   0  0  0  0  0  0  0  0  0  0  0  0
  -44.9653   53.3475   60.8316 O   0  0  0  0  0  0  0  0  0  0  0  0
  -45.8047   60.6975   67.1302 C   0  0  0  0  0  0  0  0  0  0  0  0
  -46.6402   61.7708   66.4998 C   0  0  0  0  0  0  0  0  0  0  0  0
  -45.6588   59.5131   66.5180 C   0  0  0  0  0  0  0  0  0  0  0  0
  -44.8195   58.4232   67.1440 C   0  0  0  0  0  0  0  0  0  0  0  0
  -44.7960   57.1870   66.2510 C   0  0  0  0  0  0  0  0  0  0  0  0
  -44.1950   57.5130   64.9000 C   0  0  0  0  0  0  0  0  0  0  0  0
  -44.8100   58.5630   64.0190 C   0  0  0  0  0  0  0  0  0  0  0  0
  -43.0990   56.8650   64.4810 C   0  0  0  0  0  0  0  0  0  0  0  0
  -42.4910   57.1900   63.1360 C   0  0  0  0  0  0  0  0  0  0  0  0
  -43.5718   57.6613   62.1707 C   0  0  0  0  0  0  0  0  0  0  0  0
  -44.6212   56.5842   62.0006 C   0  0  0  0  0  0  0  0  0  0  0  0
  -46.0388   56.9682   61.7096 C   0  0  0  0  0  0  0  0  0  0  0  0
  -44.2879   55.2887   62.0982 C   0  0  0  0  0  0  0  0  0  0  0  0
  -45.3213   54.1988   61.9266 C   0  0  0  0  0  0  0  0  0  0  0  0
  -45.3701   61.9462   68.7764 H   0  0  0  0  0  0  0  0  0  0  0  0
  -44.0801   60.8520   68.3385 H   0  0  0  0  0  0  0  0  0  0  0  0
  -45.4935   60.2483   69.1697 H   0  0  0  0  0  0  0  0  0  0  0  0
  -45.6348   52.6528   60.7312 H   0  0  0  0  0  0  0  0  0  0  0  0
  -46.6404   62.6375   67.1274 H   0  0  0  0  0  0  0  0  0  0  0  0
  -47.6429   61.4176   66.3792 H   0  0  0  0  0  0  0  0  0  0  0  0
  -46.2335   62.0235   65.5429 H   0  0  0  0  0  0  0  0  0  0  0  0
  -46.1233   59.3446   65.6120 H   0  0  0  0  0  0  0  0  0  0  0  0
  -45.2340   58.1623   68.0954 H   0  0  0  0  0  0  0  0  0  0  0  0
  -43.8188   58.7827   67.2635 H   0  0  0  0  0  0  0  0  0  0  0  0
  -45.7967   56.8337   66.1141 H   0  0  0  0  0  0  0  0  0  0  0  0
  -44.1973   56.4349   66.7210 H   0  0  0  0  0  0  0  0  0  0  0  0
  -45.6701   58.9759   64.5033 H   0  0  0  0  0  0  0  0  0  0  0  0
  -45.1018   58.1219   63.0888 H   0  0  0  0  0  0  0  0  0  0  0  0
  -44.0961   59.3390   63.8373 H   0  0  0  0  0  0  0  0  0  0  0  0
  -42.6690   56.1419   65.0787 H   0  0  0  0  0  0  0  0  0  0  0  0
  -42.0205   56.3145   62.7398 H   0  0  0  0  0  0  0  0  0  0  0  0
  -41.7680   57.9692   63.2585 H   0  0  0  0  0  0  0  0  0  0  0  0
  -43.1288   57.8771   61.2209 H   0  0  0  0  0  0  0  0  0  0  0  0
  -44.0341   58.5421   62.5647 H   0  0  0  0  0  0  0  0  0  0  0  0
  -46.1181   58.0344   61.6681 H   0  0  0  0  0  0  0  0  0  0  0  0
  -46.6759   56.5930   62.4831 H   0  0  0  0  0  0  0  0  0  0  0  0
  -46.3354   56.5515   60.7698 H   0  0  0  0  0  0  0  0  0  0  0  0
  -43.3079   55.0312   62.2940 H   0  0  0  0  0  0  0  0  0  0  0  0
  -45.3741   53.6175   62.8234 H   0  0  0  0  0  0  0  0  0  0  0  0
  -46.2716   54.6473   61.7254 H   0  0  0  0  0  0  0  0  0  0  0  0
  1  3  1  0  0  0  0
  1 17  1  0  0  0  0
  1 18  1  0  0  0  0
  1 19  1  0  0  0  0
  2 16  1  0  0  0  0
  2 20  1  0  0  0  0
  3  4  1  0  0  0  0
  3  5  2  0  0  0  0
  4 21  1  0  0  0  0
  4 22  1  0  0  0  0
  4 23  1  0  0  0  0
  5  6  1  0  0  0  0
  5 24  1  0  0  0  0
  6  7  1  0  0  0  0
  6 25  1  0  0  0  0
  6 26  1  0  0  0  0
  7  8  1  0  0  0  0
  7 27  1  0  0  0  0
  7 28  1  0  0  0  0
  8  9  1  0  0  0  0
  8 10  2  0  0  0  0
  9 29  1  0  0  0  0
  9 30  1  0  0  0  0
  9 31  1  0  0  0  0
 10 11  1  0  0  0  0
 10 32  1  0  0  0  0
 11 12  1  0  0  0  0
 11 33  1  0  0  0  0
 11 34  1  0  0  0  0
 12 13  1  0  0  0  0
 12 35  1  0  0  0  0
 12 36  1  0  0  0  0
 13 14  1  0  0  0  0
 13 15  2  0  0  0  0
 14 37  1  0  0  0  0
 14 38  1  0  0  0  0
 14 39  1  0  0  0  0
 15 16  1  0  0  0  0
 15 40  1  0  0  0  0
 16 41  1  0  0  0  0
 16 42  1  0  0  0  0
M  END
$$$$