/media/chris/experiments/cd1a-new-docking/inputs/ligands/6nux_ligand.pdb
 OpenBabel07022319323D

 42 41  0  0  0  0  0  0  0  0999 V2000
  -46.7519   53.4306   66.7444 C   0  0  0  0  0  0  0  0  0  0  0  0
  -41.2358   52.1030   63.9651 O   0  0  0  0  0  0  0  0  0  0  0  0
  -46.8674   54.5244   67.7617 C   0  0  0  0  0  0  0  0  0  0  0  0
  -47.4704   54.2295   69.1021 C   0  0  0  0  0  0  0  0  0  0  0  0
  -46.4385   55.7627   67.4756 C   0  0  0  0  0  0  0  0  0  0  0  0
  -45.8295   56.0722   66.1275 C   0  0  0  0  0  0  0  0  0  0  0  0
  -44.7960   57.1870   66.2510 C   0  0  0  0  0  0  0  0  0  0  0  0
  -44.1950   57.5130   64.9000 C   0  0  0  0  0  0  0  0  0  0  0  0
  -44.8100   58.5630   64.0190 C   0  0  0  0  0  0  0  0  0  0  0  0
  -43.0990   56.8650   64.4810 C   0  0  0  0  0  0  0  0  0  0  0  0
  -42.4910   57.1900   63.1360 C   0  0  0  0  0  0  0  0  0  0  0  0
  -42.4834   55.9507   62.2493 C   0  0  0  0  0  0  0  0  0  0  0  0
  -41.6852   54.8463   62.9079 C   0  0  0  0  0  0  0  0  0  0  0  0
  -40.4823   54.2854   62.2151 C   0  0  0  0  0  0  0  0  0  0  0  0
  -42.0419   54.3746   64.1116 C   0  0  0  0  0  0  0  0  0  0  0  0
  -41.2542   53.2753   64.7872 C   0  0  0  0  0  0  0  0  0  0  0  0
  -47.1434   52.5220   67.1517 H   0  0  0  0  0  0  0  0  0  0  0  0
  -45.7230   53.2913   66.4857 H   0  0  0  0  0  0  0  0  0  0  0  0
  -47.3067   53.6974   65.8693 H   0  0  0  0  0  0  0  0  0  0  0  0
  -40.7282   51.4052   64.4082 H   0  0  0  0  0  0  0  0  0  0  0  0
  -47.7517   53.1982   69.1476 H   0  0  0  0  0  0  0  0  0  0  0  0
  -48.3359   54.8420   69.2464 H   0  0  0  0  0  0  0  0  0  0  0  0
  -46.7540   54.4380   69.8691 H   0  0  0  0  0  0  0  0  0  0  0  0
  -46.5252   56.5102   68.1818 H   0  0  0  0  0  0  0  0  0  0  0  0
  -46.6020   56.3813   65.4548 H   0  0  0  0  0  0  0  0  0  0  0  0
  -45.3467   55.1926   65.7559 H   0  0  0  0  0  0  0  0  0  0  0  0
  -44.0179   56.8724   66.9147 H   0  0  0  0  0  0  0  0  0  0  0  0
  -45.2787   58.0624   66.6326 H   0  0  0  0  0  0  0  0  0  0  0  0
  -45.6701   58.9759   64.5033 H   0  0  0  0  0  0  0  0  0  0  0  0
  -45.1018   58.1219   63.0888 H   0  0  0  0  0  0  0  0  0  0  0  0
  -44.0961   59.3390   63.8373 H   0  0  0  0  0  0  0  0  0  0  0  0
  -42.6690   56.1419   65.0787 H   0  0  0  0  0  0  0  0  0  0  0  0
  -41.4865   57.5313   63.2752 H   0  0  0  0  0  0  0  0  0  0  0  0
  -43.0738   57.9535   62.6644 H   0  0  0  0  0  0  0  0  0  0  0  0
  -42.0409   56.1930   61.3057 H   0  0  0  0  0  0  0  0  0  0  0  0
  -43.4897   55.6172   62.1041 H   0  0  0  0  0  0  0  0  0  0  0  0
  -40.3510   54.7773   61.2740 H   0  0  0  0  0  0  0  0  0  0  0  0
  -40.6205   53.2368   62.0533 H   0  0  0  0  0  0  0  0  0  0  0  0
  -39.6156   54.4413   62.8230 H   0  0  0  0  0  0  0  0  0  0  0  0
  -42.8693   54.7694   64.5855 H   0  0  0  0  0  0  0  0  0  0  0  0
  -40.2505   53.6085   64.9500 H   0  0  0  0  0  0  0  0  0  0  0  0
  -41.7169   53.0385   65.7224 H   0  0  0  0  0  0  0  0  0  0  0  0
  1  3  1  0  0  0  0
  1 17  1  0  0  0  0
  1 18  1  0  0  0  0
  1 19  1  0  0  0  0
  2 16  1  0  0  0  0
  2 20  1  0  0  0  0
  3  4  1  0  0  0  0
  3  5  2  0  0  0  0
  4 21  1  0  0  0  0
  4 22  1  0  0  0  0
  4 23  1  0  0  0  0
  5  6  1  0  0  0  0
  5 24  1  0  0  0  0
  6  7  1  0  0  0  0
  6 25  1  0  0  0  0
  6 26  1  0  0  0  0
  7  8  1  0  0  0  0
  7 27  1  0  0  0  0
  7 28  1  0  0  0  0
  8  9  1  0  0  0  0
  8 10  2  0  0  0  0
  9 29  1  0  0  0  0
  9 30  1  0  0  0  0
  9 31  1  0  0  0  0
 10 11  1  0  0  0  0
 10 32  1  0  0  0  0
 11 12  1  0  0  0  0
 11 33  1  0  0  0  0
 11 34  1  0  0  0  0
 12 13  1  0  0  0  0
 12 35  1  0  0  0  0
 12 36  1  0  0  0  0
 13 14  1  0  0  0  0
 13 15  2  0  0  0  0
 14 37  1  0  0  0  0
 14 38  1  0  0  0  0
 14 39  1  0  0  0  0
 15 16  1  0  0  0  0
 15 40  1  0  0  0  0
 16 41  1  0  0  0  0
 16 42  1  0  0  0  0
M  END
$$$$