/media/chris/experiments/cd1a-new-docking/inputs/ligands/6nux_ligand.pdb
 OpenBabel07022319323D

 42 41  0  0  0  0  0  0  0  0999 V2000
  -45.8915   60.9074   65.4988 C   0  0  0  0  0  0  0  0  0  0  0  0
  -40.6497   52.4253   63.8061 O   0  0  0  0  0  0  0  0  0  0  0  0
  -44.6950   60.7137   66.3793 C   0  0  0  0  0  0  0  0  0  0  0  0
  -43.7110   61.8318   66.5496 C   0  0  0  0  0  0  0  0  0  0  0  0
  -44.5005   59.5457   67.0095 C   0  0  0  0  0  0  0  0  0  0  0  0
  -45.4852   58.4111   66.8450 C   0  0  0  0  0  0  0  0  0  0  0  0
  -44.7960   57.1870   66.2510 C   0  0  0  0  0  0  0  0  0  0  0  0
  -44.1950   57.5130   64.9000 C   0  0  0  0  0  0  0  0  0  0  0  0
  -44.8100   58.5630   64.0190 C   0  0  0  0  0  0  0  0  0  0  0  0
  -43.0990   56.8650   64.4810 C   0  0  0  0  0  0  0  0  0  0  0  0
  -42.4910   57.1900   63.1360 C   0  0  0  0  0  0  0  0  0  0  0  0
  -42.4834   55.9507   62.2493 C   0  0  0  0  0  0  0  0  0  0  0  0
  -41.6852   54.8463   62.9079 C   0  0  0  0  0  0  0  0  0  0  0  0
  -40.4823   54.2854   62.2151 C   0  0  0  0  0  0  0  0  0  0  0  0
  -42.0419   54.3746   64.1116 C   0  0  0  0  0  0  0  0  0  0  0  0
  -41.2542   53.2753   64.7872 C   0  0  0  0  0  0  0  0  0  0  0  0
  -45.8750   61.8948   65.0867 H   0  0  0  0  0  0  0  0  0  0  0  0
  -46.7834   60.7764   66.0751 H   0  0  0  0  0  0  0  0  0  0  0  0
  -45.8706   60.1895   64.7056 H   0  0  0  0  0  0  0  0  0  0  0  0
  -40.1475   51.7245   64.2507 H   0  0  0  0  0  0  0  0  0  0  0  0
  -44.0291   62.6773   65.9762 H   0  0  0  0  0  0  0  0  0  0  0  0
  -42.7472   61.5134   66.2109 H   0  0  0  0  0  0  0  0  0  0  0  0
  -43.6543   62.1027   67.5831 H   0  0  0  0  0  0  0  0  0  0  0  0
  -43.6716   59.4208   67.6115 H   0  0  0  0  0  0  0  0  0  0  0  0
  -46.2746   58.7217   66.1929 H   0  0  0  0  0  0  0  0  0  0  0  0
  -45.8799   58.1536   67.8057 H   0  0  0  0  0  0  0  0  0  0  0  0
  -45.5134   56.4015   66.1358 H   0  0  0  0  0  0  0  0  0  0  0  0
  -44.0117   56.8802   66.9110 H   0  0  0  0  0  0  0  0  0  0  0  0
  -45.6701   58.9759   64.5033 H   0  0  0  0  0  0  0  0  0  0  0  0
  -45.1018   58.1219   63.0888 H   0  0  0  0  0  0  0  0  0  0  0  0
  -44.0961   59.3390   63.8373 H   0  0  0  0  0  0  0  0  0  0  0  0
  -42.6690   56.1419   65.0787 H   0  0  0  0  0  0  0  0  0  0  0  0
  -41.4865   57.5313   63.2752 H   0  0  0  0  0  0  0  0  0  0  0  0
  -43.0738   57.9535   62.6644 H   0  0  0  0  0  0  0  0  0  0  0  0
  -42.0409   56.1930   61.3057 H   0  0  0  0  0  0  0  0  0  0  0  0
  -43.4897   55.6172   62.1041 H   0  0  0  0  0  0  0  0  0  0  0  0
  -40.3510   54.7773   61.2740 H   0  0  0  0  0  0  0  0  0  0  0  0
  -40.6205   53.2368   62.0533 H   0  0  0  0  0  0  0  0  0  0  0  0
  -39.6156   54.4413   62.8230 H   0  0  0  0  0  0  0  0  0  0  0  0
  -42.8693   54.7694   64.5855 H   0  0  0  0  0  0  0  0  0  0  0  0
  -40.4900   53.7111   65.3962 H   0  0  0  0  0  0  0  0  0  0  0  0
  -41.9166   52.6929   65.3930 H   0  0  0  0  0  0  0  0  0  0  0  0
  1  3  1  0  0  0  0
  1 17  1  0  0  0  0
  1 18  1  0  0  0  0
  1 19  1  0  0  0  0
  2 16  1  0  0  0  0
  2 20  1  0  0  0  0
  3  4  1  0  0  0  0
  3  5  2  0  0  0  0
  4 21  1  0  0  0  0
  4 22  1  0  0  0  0
  4 23  1  0  0  0  0
  5  6  1  0  0  0  0
  5 24  1  0  0  0  0
  6  7  1  0  0  0  0
  6 25  1  0  0  0  0
  6 26  1  0  0  0  0
  7  8  1  0  0  0  0
  7 27  1  0  0  0  0
  7 28  1  0  0  0  0
  8  9  1  0  0  0  0
  8 10  2  0  0  0  0
  9 29  1  0  0  0  0
  9 30  1  0  0  0  0
  9 31  1  0  0  0  0
 10 11  1  0  0  0  0
 10 32  1  0  0  0  0
 11 12  1  0  0  0  0
 11 33  1  0  0  0  0
 11 34  1  0  0  0  0
 12 13  1  0  0  0  0
 12 35  1  0  0  0  0
 12 36  1  0  0  0  0
 13 14  1  0  0  0  0
 13 15  2  0  0  0  0
 14 37  1  0  0  0  0
 14 38  1  0  0  0  0
 14 39  1  0  0  0  0
 15 16  1  0  0  0  0
 15 40  1  0  0  0  0
 16 41  1  0  0  0  0
 16 42  1  0  0  0  0
M  END
$$$$