/media/chris/experiments/cd1a-new-docking/inputs/ligands/6nux_ligand.pdb
 OpenBabel07022319323D

 42 41  0  0  0  0  0  0  0  0999 V2000
  -47.6666   59.4541   67.7435 C   0  0  0  0  0  0  0  0  0  0  0  0
  -42.7615   61.2499   65.5904 O   0  0  0  0  0  0  0  0  0  0  0  0
  -47.5339   58.0687   68.2982 C   0  0  0  0  0  0  0  0  0  0  0  0
  -48.1165   57.7493   69.6420 C   0  0  0  0  0  0  0  0  0  0  0  0
  -46.8938   57.1188   67.6003 C   0  0  0  0  0  0  0  0  0  0  0  0
  -46.3018   57.4291   66.2448 C   0  0  0  0  0  0  0  0  0  0  0  0
  -44.7960   57.1870   66.2510 C   0  0  0  0  0  0  0  0  0  0  0  0
  -44.1950   57.5130   64.9000 C   0  0  0  0  0  0  0  0  0  0  0  0
  -44.8100   58.5630   64.0190 C   0  0  0  0  0  0  0  0  0  0  0  0
  -43.0990   56.8650   64.4810 C   0  0  0  0  0  0  0  0  0  0  0  0
  -42.4910   57.1900   63.1360 C   0  0  0  0  0  0  0  0  0  0  0  0
  -41.0574   57.6762   63.3109 C   0  0  0  0  0  0  0  0  0  0  0  0
  -41.0312   58.9108   64.1856 C   0  0  0  0  0  0  0  0  0  0  0  0
  -40.2626   58.8942   65.4704 C   0  0  0  0  0  0  0  0  0  0  0  0
  -41.6826   60.0223   63.8127 C   0  0  0  0  0  0  0  0  0  0  0  0
  -41.6640   61.2666   64.6709 C   0  0  0  0  0  0  0  0  0  0  0  0
  -48.2034   60.0663   68.4377 H   0  0  0  0  0  0  0  0  0  0  0  0
  -48.1977   59.4174   66.8154 H   0  0  0  0  0  0  0  0  0  0  0  0
  -46.6933   59.8681   67.5814 H   0  0  0  0  0  0  0  0  0  0  0  0
  -42.7393   62.0522   66.1351 H   0  0  0  0  0  0  0  0  0  0  0  0
  -48.5843   58.6232   70.0448 H   0  0  0  0  0  0  0  0  0  0  0  0
  -47.3377   57.4259   70.3007 H   0  0  0  0  0  0  0  0  0  0  0  0
  -48.8432   56.9706   69.5397 H   0  0  0  0  0  0  0  0  0  0  0  0
  -46.8050   56.1682   67.9921 H   0  0  0  0  0  0  0  0  0  0  0  0
  -46.4926   58.4540   66.0036 H   0  0  0  0  0  0  0  0  0  0  0  0
  -46.7522   56.7884   65.5157 H   0  0  0  0  0  0  0  0  0  0  0  0
  -44.6066   56.1593   66.4807 H   0  0  0  0  0  0  0  0  0  0  0  0
  -44.3490   57.8210   66.9880 H   0  0  0  0  0  0  0  0  0  0  0  0
  -45.6701   58.9759   64.5033 H   0  0  0  0  0  0  0  0  0  0  0  0
  -45.1018   58.1219   63.0888 H   0  0  0  0  0  0  0  0  0  0  0  0
  -44.0961   59.3390   63.8373 H   0  0  0  0  0  0  0  0  0  0  0  0
  -42.6690   56.1419   65.0787 H   0  0  0  0  0  0  0  0  0  0  0  0
  -43.0688   57.9561   62.6626 H   0  0  0  0  0  0  0  0  0  0  0  0
  -42.4893   56.3075   62.5309 H   0  0  0  0  0  0  0  0  0  0  0  0
  -40.6442   57.9123   62.3526 H   0  0  0  0  0  0  0  0  0  0  0  0
  -40.4798   56.9047   63.7758 H   0  0  0  0  0  0  0  0  0  0  0  0
  -39.8115   57.9332   65.6037 H   0  0  0  0  0  0  0  0  0  0  0  0
  -40.9264   59.0929   66.2857 H   0  0  0  0  0  0  0  0  0  0  0  0
  -39.5006   59.6448   65.4398 H   0  0  0  0  0  0  0  0  0  0  0  0
  -42.2063   60.0281   62.9234 H   0  0  0  0  0  0  0  0  0  0  0  0
  -40.7452   61.3050   65.2179 H   0  0  0  0  0  0  0  0  0  0  0  0
  -41.7501   62.1268   64.0403 H   0  0  0  0  0  0  0  0  0  0  0  0
  1  3  1  0  0  0  0
  1 17  1  0  0  0  0
  1 18  1  0  0  0  0
  1 19  1  0  0  0  0
  2 16  1  0  0  0  0
  2 20  1  0  0  0  0
  3  4  1  0  0  0  0
  3  5  2  0  0  0  0
  4 21  1  0  0  0  0
  4 22  1  0  0  0  0
  4 23  1  0  0  0  0
  5  6  1  0  0  0  0
  5 24  1  0  0  0  0
  6  7  1  0  0  0  0
  6 25  1  0  0  0  0
  6 26  1  0  0  0  0
  7  8  1  0  0  0  0
  7 27  1  0  0  0  0
  7 28  1  0  0  0  0
  8  9  1  0  0  0  0
  8 10  2  0  0  0  0
  9 29  1  0  0  0  0
  9 30  1  0  0  0  0
  9 31  1  0  0  0  0
 10 11  1  0  0  0  0
 10 32  1  0  0  0  0
 11 12  1  0  0  0  0
 11 33  1  0  0  0  0
 11 34  1  0  0  0  0
 12 13  1  0  0  0  0
 12 35  1  0  0  0  0
 12 36  1  0  0  0  0
 13 14  1  0  0  0  0
 13 15  2  0  0  0  0
 14 37  1  0  0  0  0
 14 38  1  0  0  0  0
 14 39  1  0  0  0  0
 15 16  1  0  0  0  0
 15 40  1  0  0  0  0
 16 41  1  0  0  0  0
 16 42  1  0  0  0  0
M  END
$$$$