/media/chris/experiments/cd1a-new-docking/inputs/ligands/6nux_ligand.pdb
 OpenBabel07022319323D

 42 41  0  0  0  0  0  0  0  0999 V2000
  -45.8915   60.9074   65.4988 C   0  0  0  0  0  0  0  0  0  0  0  0
  -39.3400   58.1942   66.5199 O   0  0  0  0  0  0  0  0  0  0  0  0
  -44.6950   60.7137   66.3793 C   0  0  0  0  0  0  0  0  0  0  0  0
  -43.7110   61.8318   66.5496 C   0  0  0  0  0  0  0  0  0  0  0  0
  -44.5005   59.5457   67.0095 C   0  0  0  0  0  0  0  0  0  0  0  0
  -45.4852   58.4111   66.8450 C   0  0  0  0  0  0  0  0  0  0  0  0
  -44.7960   57.1870   66.2510 C   0  0  0  0  0  0  0  0  0  0  0  0
  -44.1950   57.5130   64.9000 C   0  0  0  0  0  0  0  0  0  0  0  0
  -44.8100   58.5630   64.0190 C   0  0  0  0  0  0  0  0  0  0  0  0
  -43.0990   56.8650   64.4810 C   0  0  0  0  0  0  0  0  0  0  0  0
  -42.4910   57.1900   63.1360 C   0  0  0  0  0  0  0  0  0  0  0  0
  -42.0598   58.6510   63.0933 C   0  0  0  0  0  0  0  0  0  0  0  0
  -41.0198   58.9165   64.1602 C   0  0  0  0  0  0  0  0  0  0  0  0
  -41.2929   59.9307   65.2270 C   0  0  0  0  0  0  0  0  0  0  0  0
  -39.8604   58.2421   64.1623 C   0  0  0  0  0  0  0  0  0  0  0  0
  -38.8116   58.4902   65.2224 C   0  0  0  0  0  0  0  0  0  0  0  0
  -45.8750   61.8948   65.0867 H   0  0  0  0  0  0  0  0  0  0  0  0
  -46.7834   60.7764   66.0751 H   0  0  0  0  0  0  0  0  0  0  0  0
  -45.8706   60.1895   64.7056 H   0  0  0  0  0  0  0  0  0  0  0  0
  -38.6590   58.3569   67.1912 H   0  0  0  0  0  0  0  0  0  0  0  0
  -44.0291   62.6773   65.9762 H   0  0  0  0  0  0  0  0  0  0  0  0
  -42.7472   61.5134   66.2109 H   0  0  0  0  0  0  0  0  0  0  0  0
  -43.6543   62.1027   67.5831 H   0  0  0  0  0  0  0  0  0  0  0  0
  -43.6716   59.4208   67.6115 H   0  0  0  0  0  0  0  0  0  0  0  0
  -46.2746   58.7217   66.1929 H   0  0  0  0  0  0  0  0  0  0  0  0
  -45.8799   58.1536   67.8057 H   0  0  0  0  0  0  0  0  0  0  0  0
  -45.5134   56.4015   66.1358 H   0  0  0  0  0  0  0  0  0  0  0  0
  -44.0117   56.8802   66.9110 H   0  0  0  0  0  0  0  0  0  0  0  0
  -45.6701   58.9759   64.5033 H   0  0  0  0  0  0  0  0  0  0  0  0
  -45.1018   58.1219   63.0888 H   0  0  0  0  0  0  0  0  0  0  0  0
  -44.0961   59.3390   63.8373 H   0  0  0  0  0  0  0  0  0  0  0  0
  -42.6690   56.1419   65.0787 H   0  0  0  0  0  0  0  0  0  0  0  0
  -43.2151   57.0125   62.3685 H   0  0  0  0  0  0  0  0  0  0  0  0
  -41.6343   56.5681   62.9804 H   0  0  0  0  0  0  0  0  0  0  0  0
  -42.9108   59.2765   63.2650 H   0  0  0  0  0  0  0  0  0  0  0  0
  -41.6394   58.8646   62.1329 H   0  0  0  0  0  0  0  0  0  0  0  0
  -42.2575   60.3653   65.0674 H   0  0  0  0  0  0  0  0  0  0  0  0
  -40.5463   60.6964   65.1908 H   0  0  0  0  0  0  0  0  0  0  0  0
  -41.2700   59.4553   66.1854 H   0  0  0  0  0  0  0  0  0  0  0  0
  -39.6810   57.5409   63.4267 H   0  0  0  0  0  0  0  0  0  0  0  0
  -37.9644   57.8643   65.0346 H   0  0  0  0  0  0  0  0  0  0  0  0
  -38.5199   59.5192   65.1907 H   0  0  0  0  0  0  0  0  0  0  0  0
  1  3  1  0  0  0  0
  1 17  1  0  0  0  0
  1 18  1  0  0  0  0
  1 19  1  0  0  0  0
  2 16  1  0  0  0  0
  2 20  1  0  0  0  0
  3  4  1  0  0  0  0
  3  5  2  0  0  0  0
  4 21  1  0  0  0  0
  4 22  1  0  0  0  0
  4 23  1  0  0  0  0
  5  6  1  0  0  0  0
  5 24  1  0  0  0  0
  6  7  1  0  0  0  0
  6 25  1  0  0  0  0
  6 26  1  0  0  0  0
  7  8  1  0  0  0  0
  7 27  1  0  0  0  0
  7 28  1  0  0  0  0
  8  9  1  0  0  0  0
  8 10  2  0  0  0  0
  9 29  1  0  0  0  0
  9 30  1  0  0  0  0
  9 31  1  0  0  0  0
 10 11  1  0  0  0  0
 10 32  1  0  0  0  0
 11 12  1  0  0  0  0
 11 33  1  0  0  0  0
 11 34  1  0  0  0  0
 12 13  1  0  0  0  0
 12 35  1  0  0  0  0
 12 36  1  0  0  0  0
 13 14  1  0  0  0  0
 13 15  2  0  0  0  0
 14 37  1  0  0  0  0
 14 38  1  0  0  0  0
 14 39  1  0  0  0  0
 15 16  1  0  0  0  0
 15 40  1  0  0  0  0
 16 41  1  0  0  0  0
 16 42  1  0  0  0  0
M  END
$$$$