/media/chris/experiments/cd1a-new-docking/inputs/ligands/6nux_ligand.pdb
 OpenBabel07022319323D

 42 41  0  0  0  0  0  0  0  0999 V2000
  -46.7763   56.3484   67.4190 C   0  0  0  0  0  0  0  0  0  0  0  0
  -38.2058   59.0164   65.2570 O   0  0  0  0  0  0  0  0  0  0  0  0
  -46.3187   57.1149   68.6221 C   0  0  0  0  0  0  0  0  0  0  0  0
  -46.8921   56.7921   69.9691 C   0  0  0  0  0  0  0  0  0  0  0  0
  -45.4043   58.0883   68.4969 C   0  0  0  0  0  0  0  0  0  0  0  0
  -44.8195   58.4232   67.1440 C   0  0  0  0  0  0  0  0  0  0  0  0
  -44.7960   57.1870   66.2510 C   0  0  0  0  0  0  0  0  0  0  0  0
  -44.1950   57.5130   64.9000 C   0  0  0  0  0  0  0  0  0  0  0  0
  -44.8100   58.5630   64.0190 C   0  0  0  0  0  0  0  0  0  0  0  0
  -43.0990   56.8650   64.4810 C   0  0  0  0  0  0  0  0  0  0  0  0
  -42.4910   57.1900   63.1360 C   0  0  0  0  0  0  0  0  0  0  0  0
  -41.2715   56.3116   62.8844 C   0  0  0  0  0  0  0  0  0  0  0  0
  -40.2396   56.5333   63.9690 C   0  0  0  0  0  0  0  0  0  0  0  0
  -39.3288   55.4137   64.3672 C   0  0  0  0  0  0  0  0  0  0  0  0
  -40.1286   57.7283   64.5679 C   0  0  0  0  0  0  0  0  0  0  0  0
  -39.1008   57.9700   65.6498 C   0  0  0  0  0  0  0  0  0  0  0  0
  -47.5017   55.6196   67.7151 H   0  0  0  0  0  0  0  0  0  0  0  0
  -45.9390   55.8562   66.9700 H   0  0  0  0  0  0  0  0  0  0  0  0
  -47.2151   57.0218   66.7127 H   0  0  0  0  0  0  0  0  0  0  0  0
  -37.5516   59.1625   65.9581 H   0  0  0  0  0  0  0  0  0  0  0  0
  -47.5998   55.9952   69.8738 H   0  0  0  0  0  0  0  0  0  0  0  0
  -47.3808   57.6576   70.3654 H   0  0  0  0  0  0  0  0  0  0  0  0
  -46.1051   56.4931   70.6294 H   0  0  0  0  0  0  0  0  0  0  0  0
  -45.0976   58.6128   69.3310 H   0  0  0  0  0  0  0  0  0  0  0  0
  -43.8204   58.7841   67.2720 H   0  0  0  0  0  0  0  0  0  0  0  0
  -45.4263   59.1729   66.6809 H   0  0  0  0  0  0  0  0  0  0  0  0
  -45.7967   56.8337   66.1141 H   0  0  0  0  0  0  0  0  0  0  0  0
  -44.1973   56.4349   66.7210 H   0  0  0  0  0  0  0  0  0  0  0  0
  -45.6701   58.9759   64.5033 H   0  0  0  0  0  0  0  0  0  0  0  0
  -45.1018   58.1219   63.0888 H   0  0  0  0  0  0  0  0  0  0  0  0
  -44.0961   59.3390   63.8373 H   0  0  0  0  0  0  0  0  0  0  0  0
  -42.6690   56.1419   65.0787 H   0  0  0  0  0  0  0  0  0  0  0  0
  -42.1953   58.2182   63.1208 H   0  0  0  0  0  0  0  0  0  0  0  0
  -43.2168   57.0076   62.3712 H   0  0  0  0  0  0  0  0  0  0  0  0
  -40.8459   56.5601   61.9347 H   0  0  0  0  0  0  0  0  0  0  0  0
  -41.5717   55.2846   62.8907 H   0  0  0  0  0  0  0  0  0  0  0  0
  -39.5597   54.5434   63.7892 H   0  0  0  0  0  0  0  0  0  0  0  0
  -39.4628   55.1975   65.4065 H   0  0  0  0  0  0  0  0  0  0  0  0
  -38.3131   55.7001   64.1905 H   0  0  0  0  0  0  0  0  0  0  0  0
  -40.7564   58.4969   64.2848 H   0  0  0  0  0  0  0  0  0  0  0  0
  -39.5990   58.2519   66.5538 H   0  0  0  0  0  0  0  0  0  0  0  0
  -38.5406   57.0719   65.8060 H   0  0  0  0  0  0  0  0  0  0  0  0
  1  3  1  0  0  0  0
  1 17  1  0  0  0  0
  1 18  1  0  0  0  0
  1 19  1  0  0  0  0
  2 16  1  0  0  0  0
  2 20  1  0  0  0  0
  3  4  1  0  0  0  0
  3  5  2  0  0  0  0
  4 21  1  0  0  0  0
  4 22  1  0  0  0  0
  4 23  1  0  0  0  0
  5  6  1  0  0  0  0
  5 24  1  0  0  0  0
  6  7  1  0  0  0  0
  6 25  1  0  0  0  0
  6 26  1  0  0  0  0
  7  8  1  0  0  0  0
  7 27  1  0  0  0  0
  7 28  1  0  0  0  0
  8  9  1  0  0  0  0
  8 10  2  0  0  0  0
  9 29  1  0  0  0  0
  9 30  1  0  0  0  0
  9 31  1  0  0  0  0
 10 11  1  0  0  0  0
 10 32  1  0  0  0  0
 11 12  1  0  0  0  0
 11 33  1  0  0  0  0
 11 34  1  0  0  0  0
 12 13  1  0  0  0  0
 12 35  1  0  0  0  0
 12 36  1  0  0  0  0
 13 14  1  0  0  0  0
 13 15  2  0  0  0  0
 14 37  1  0  0  0  0
 14 38  1  0  0  0  0
 14 39  1  0  0  0  0
 15 16  1  0  0  0  0
 15 40  1  0  0  0  0
 16 41  1  0  0  0  0
 16 42  1  0  0  0  0
M  END
$$$$