/media/chris/experiments/cd1a-new-docking/inputs/ligands/6nux_ligand.pdb
 OpenBabel07022319323D

 42 41  0  0  0  0  0  0  0  0999 V2000
  -46.1400   53.0776   66.9172 C   0  0  0  0  0  0  0  0  0  0  0  0
  -37.7251   56.4754   64.8603 O   0  0  0  0  0  0  0  0  0  0  0  0
  -46.2610   54.1670   67.9385 C   0  0  0  0  0  0  0  0  0  0  0  0
  -46.8698   53.8660   69.2750 C   0  0  0  0  0  0  0  0  0  0  0  0
  -45.8319   55.4069   67.6596 C   0  0  0  0  0  0  0  0  0  0  0  0
  -45.2171   55.7225   66.3155 C   0  0  0  0  0  0  0  0  0  0  0  0
  -44.7960   57.1870   66.2510 C   0  0  0  0  0  0  0  0  0  0  0  0
  -44.1950   57.5130   64.9000 C   0  0  0  0  0  0  0  0  0  0  0  0
  -44.8100   58.5630   64.0190 C   0  0  0  0  0  0  0  0  0  0  0  0
  -43.0990   56.8650   64.4810 C   0  0  0  0  0  0  0  0  0  0  0  0
  -42.4910   57.1900   63.1360 C   0  0  0  0  0  0  0  0  0  0  0  0
  -41.8169   55.9546   62.5516 C   0  0  0  0  0  0  0  0  0  0  0  0
  -40.7335   55.4631   63.4871 C   0  0  0  0  0  0  0  0  0  0  0  0
  -40.4046   54.0035   63.5402 C   0  0  0  0  0  0  0  0  0  0  0  0
  -40.0595   56.3271   64.2605 C   0  0  0  0  0  0  0  0  0  0  0  0
  -38.9711   55.8555   65.1975 C   0  0  0  0  0  0  0  0  0  0  0  0
  -46.5326   52.1669   67.3189 H   0  0  0  0  0  0  0  0  0  0  0  0
  -45.1099   52.9403   66.6626 H   0  0  0  0  0  0  0  0  0  0  0  0
  -46.6911   53.3476   66.0407 H   0  0  0  0  0  0  0  0  0  0  0  0
  -37.0350   56.1656   65.4675 H   0  0  0  0  0  0  0  0  0  0  0  0
  -47.1504   52.8342   69.3148 H   0  0  0  0  0  0  0  0  0  0  0  0
  -47.7364   54.4771   69.4180 H   0  0  0  0  0  0  0  0  0  0  0  0
  -46.1570   54.0718   70.0461 H   0  0  0  0  0  0  0  0  0  0  0  0
  -45.9223   56.1513   68.3686 H   0  0  0  0  0  0  0  0  0  0  0  0
  -45.9346   55.5283   65.5458 H   0  0  0  0  0  0  0  0  0  0  0  0
  -44.3524   55.1076   66.1777 H   0  0  0  0  0  0  0  0  0  0  0  0
  -44.0698   57.3774   67.0135 H   0  0  0  0  0  0  0  0  0  0  0  0
  -45.6604   57.8000   66.3995 H   0  0  0  0  0  0  0  0  0  0  0  0
  -45.6701   58.9759   64.5033 H   0  0  0  0  0  0  0  0  0  0  0  0
  -45.1018   58.1219   63.0888 H   0  0  0  0  0  0  0  0  0  0  0  0
  -44.0961   59.3390   63.8373 H   0  0  0  0  0  0  0  0  0  0  0  0
  -42.6690   56.1419   65.0787 H   0  0  0  0  0  0  0  0  0  0  0  0
  -41.7644   57.9664   63.2548 H   0  0  0  0  0  0  0  0  0  0  0  0
  -43.2650   57.5130   62.4715 H   0  0  0  0  0  0  0  0  0  0  0  0
  -41.3823   56.2024   61.6057 H   0  0  0  0  0  0  0  0  0  0  0  0
  -42.5475   55.1832   62.4251 H   0  0  0  0  0  0  0  0  0  0  0  0
  -41.0375   53.4703   62.8619 H   0  0  0  0  0  0  0  0  0  0  0  0
  -40.5596   53.6388   64.5341 H   0  0  0  0  0  0  0  0  0  0  0  0
  -39.3815   53.8581   63.2624 H   0  0  0  0  0  0  0  0  0  0  0  0
  -40.2883   57.3324   64.2151 H   0  0  0  0  0  0  0  0  0  0  0  0
  -39.2335   56.1133   66.2023 H   0  0  0  0  0  0  0  0  0  0  0  0
  -38.8685   54.7942   65.1074 H   0  0  0  0  0  0  0  0  0  0  0  0
  1  3  1  0  0  0  0
  1 17  1  0  0  0  0
  1 18  1  0  0  0  0
  1 19  1  0  0  0  0
  2 16  1  0  0  0  0
  2 20  1  0  0  0  0
  3  4  1  0  0  0  0
  3  5  2  0  0  0  0
  4 21  1  0  0  0  0
  4 22  1  0  0  0  0
  4 23  1  0  0  0  0
  5  6  1  0  0  0  0
  5 24  1  0  0  0  0
  6  7  1  0  0  0  0
  6 25  1  0  0  0  0
  6 26  1  0  0  0  0
  7  8  1  0  0  0  0
  7 27  1  0  0  0  0
  7 28  1  0  0  0  0
  8  9  1  0  0  0  0
  8 10  2  0  0  0  0
  9 29  1  0  0  0  0
  9 30  1  0  0  0  0
  9 31  1  0  0  0  0
 10 11  1  0  0  0  0
 10 32  1  0  0  0  0
 11 12  1  0  0  0  0
 11 33  1  0  0  0  0
 11 34  1  0  0  0  0
 12 13  1  0  0  0  0
 12 35  1  0  0  0  0
 12 36  1  0  0  0  0
 13 14  1  0  0  0  0
 13 15  2  0  0  0  0
 14 37  1  0  0  0  0
 14 38  1  0  0  0  0
 14 39  1  0  0  0  0
 15 16  1  0  0  0  0
 15 40  1  0  0  0  0
 16 41  1  0  0  0  0
 16 42  1  0  0  0  0
M  END
$$$$