/media/chris/experiments/cd1a-new-docking/inputs/ligands/6nux_ligand.pdb
 OpenBabel07022319323D

 42 41  0  0  0  0  0  0  0  0999 V2000
  -44.6795   54.7786   67.9335 C   0  0  0  0  0  0  0  0  0  0  0  0
  -42.2528   56.2512   57.6946 O   0  0  0  0  0  0  0  0  0  0  0  0
  -44.8011   55.8501   68.9735 C   0  0  0  0  0  0  0  0  0  0  0  0
  -45.3943   55.5216   70.3105 C   0  0  0  0  0  0  0  0  0  0  0  0
  -44.3864   57.0984   68.7108 C   0  0  0  0  0  0  0  0  0  0  0  0
  -43.7874   57.4416   67.3664 C   0  0  0  0  0  0  0  0  0  0  0  0
  -44.7960   57.1870   66.2510 C   0  0  0  0  0  0  0  0  0  0  0  0
  -44.1950   57.5130   64.9000 C   0  0  0  0  0  0  0  0  0  0  0  0
  -44.8100   58.5630   64.0190 C   0  0  0  0  0  0  0  0  0  0  0  0
  -43.0990   56.8650   64.4810 C   0  0  0  0  0  0  0  0  0  0  0  0
  -42.4910   57.1900   63.1360 C   0  0  0  0  0  0  0  0  0  0  0  0
  -41.8169   55.9546   62.5516 C   0  0  0  0  0  0  0  0  0  0  0  0
  -41.1941   56.2875   61.2131 C   0  0  0  0  0  0  0  0  0  0  0  0
  -39.7769   56.7663   61.1522 C   0  0  0  0  0  0  0  0  0  0  0  0
  -41.8995   56.1463   60.0811 C   0  0  0  0  0  0  0  0  0  0  0  0
  -41.2930   56.4692   58.7346 C   0  0  0  0  0  0  0  0  0  0  0  0
  -45.0596   53.8577   68.3240 H   0  0  0  0  0  0  0  0  0  0  0  0
  -43.6505   54.6553   67.6671 H   0  0  0  0  0  0  0  0  0  0  0  0
  -45.2414   55.0574   67.0667 H   0  0  0  0  0  0  0  0  0  0  0  0
  -41.8528   56.4614   56.8362 H   0  0  0  0  0  0  0  0  0  0  0  0
  -45.6647   54.4867   70.3362 H   0  0  0  0  0  0  0  0  0  0  0  0
  -46.2653   56.1220   70.4715 H   0  0  0  0  0  0  0  0  0  0  0  0
  -44.6763   55.7218   71.0782 H   0  0  0  0  0  0  0  0  0  0  0  0
  -44.4772   57.8303   69.4326 H   0  0  0  0  0  0  0  0  0  0  0  0
  -42.9206   56.8361   67.2022 H   0  0  0  0  0  0  0  0  0  0  0  0
  -43.5201   58.4777   67.3611 H   0  0  0  0  0  0  0  0  0  0  0  0
  -45.6574   57.8016   66.4096 H   0  0  0  0  0  0  0  0  0  0  0  0
  -45.0697   56.1527   66.2648 H   0  0  0  0  0  0  0  0  0  0  0  0
  -45.6701   58.9759   64.5033 H   0  0  0  0  0  0  0  0  0  0  0  0
  -45.1018   58.1219   63.0888 H   0  0  0  0  0  0  0  0  0  0  0  0
  -44.0961   59.3390   63.8373 H   0  0  0  0  0  0  0  0  0  0  0  0
  -42.6690   56.1419   65.0787 H   0  0  0  0  0  0  0  0  0  0  0  0
  -41.7644   57.9664   63.2548 H   0  0  0  0  0  0  0  0  0  0  0  0
  -43.2650   57.5130   62.4715 H   0  0  0  0  0  0  0  0  0  0  0  0
  -42.5455   55.1821   62.4208 H   0  0  0  0  0  0  0  0  0  0  0  0
  -41.0515   55.6228   63.2216 H   0  0  0  0  0  0  0  0  0  0  0  0
  -39.3750   56.8179   62.1425 H   0  0  0  0  0  0  0  0  0  0  0  0
  -39.7476   57.7377   60.7043 H   0  0  0  0  0  0  0  0  0  0  0  0
  -39.1953   56.0857   60.5662 H   0  0  0  0  0  0  0  0  0  0  0  0
  -42.8742   55.8110   60.1302 H   0  0  0  0  0  0  0  0  0  0  0  0
  -40.9852   57.4939   58.7222 H   0  0  0  0  0  0  0  0  0  0  0  0
  -40.4492   55.8322   58.5700 H   0  0  0  0  0  0  0  0  0  0  0  0
  1  3  1  0  0  0  0
  1 17  1  0  0  0  0
  1 18  1  0  0  0  0
  1 19  1  0  0  0  0
  2 16  1  0  0  0  0
  2 20  1  0  0  0  0
  3  4  1  0  0  0  0
  3  5  2  0  0  0  0
  4 21  1  0  0  0  0
  4 22  1  0  0  0  0
  4 23  1  0  0  0  0
  5  6  1  0  0  0  0
  5 24  1  0  0  0  0
  6  7  1  0  0  0  0
  6 25  1  0  0  0  0
  6 26  1  0  0  0  0
  7  8  1  0  0  0  0
  7 27  1  0  0  0  0
  7 28  1  0  0  0  0
  8  9  1  0  0  0  0
  8 10  2  0  0  0  0
  9 29  1  0  0  0  0
  9 30  1  0  0  0  0
  9 31  1  0  0  0  0
 10 11  1  0  0  0  0
 10 32  1  0  0  0  0
 11 12  1  0  0  0  0
 11 33  1  0  0  0  0
 11 34  1  0  0  0  0
 12 13  1  0  0  0  0
 12 35  1  0  0  0  0
 12 36  1  0  0  0  0
 13 14  1  0  0  0  0
 13 15  2  0  0  0  0
 14 37  1  0  0  0  0
 14 38  1  0  0  0  0
 14 39  1  0  0  0  0
 15 16  1  0  0  0  0
 15 40  1  0  0  0  0
 16 41  1  0  0  0  0
 16 42  1  0  0  0  0
M  END
$$$$