/media/chris/experiments/cd1a-new-docking/inputs/ligands/6nux_ligand.pdb
 OpenBabel07022319323D

 42 41  0  0  0  0  0  0  0  0999 V2000
  -43.1247   56.0304   69.0793 C   0  0  0  0  0  0  0  0  0  0  0  0
  -39.6609   57.5038   59.1853 O   0  0  0  0  0  0  0  0  0  0  0  0
  -42.4044   55.5821   67.8445 C   0  0  0  0  0  0  0  0  0  0  0  0
  -40.9340   55.2967   67.9063 C   0  0  0  0  0  0  0  0  0  0  0  0
  -43.0683   55.4404   66.6876 C   0  0  0  0  0  0  0  0  0  0  0  0
  -44.5505   55.7258   66.6128 C   0  0  0  0  0  0  0  0  0  0  0  0
  -44.7960   57.1870   66.2510 C   0  0  0  0  0  0  0  0  0  0  0  0
  -44.1950   57.5130   64.9000 C   0  0  0  0  0  0  0  0  0  0  0  0
  -44.8100   58.5630   64.0190 C   0  0  0  0  0  0  0  0  0  0  0  0
  -43.0990   56.8650   64.4810 C   0  0  0  0  0  0  0  0  0  0  0  0
  -42.4910   57.1900   63.1360 C   0  0  0  0  0  0  0  0  0  0  0  0
  -42.0598   58.6510   63.0933 C   0  0  0  0  0  0  0  0  0  0  0  0
  -41.4673   58.9779   61.7397 C   0  0  0  0  0  0  0  0  0  0  0  0
  -40.9564   60.3584   61.4668 C   0  0  0  0  0  0  0  0  0  0  0  0
  -41.3874   58.0369   60.7873 C   0  0  0  0  0  0  0  0  0  0  0  0
  -40.7945   58.3434   59.4309 C   0  0  0  0  0  0  0  0  0  0  0  0
  -42.4345   56.0842   69.8952 H   0  0  0  0  0  0  0  0  0  0  0  0
  -43.9001   55.3313   69.3136 H   0  0  0  0  0  0  0  0  0  0  0  0
  -43.5540   56.9960   68.9111 H   0  0  0  0  0  0  0  0  0  0  0  0
  -39.2893   57.7092   58.3132 H   0  0  0  0  0  0  0  0  0  0  0  0
  -40.5800   55.4631   68.9023 H   0  0  0  0  0  0  0  0  0  0  0  0
  -40.4161   55.9450   67.2307 H   0  0  0  0  0  0  0  0  0  0  0  0
  -40.7564   54.2784   67.6301 H   0  0  0  0  0  0  0  0  0  0  0  0
  -42.5628   55.1340   65.8417 H   0  0  0  0  0  0  0  0  0  0  0  0
  -44.9973   55.5185   67.5627 H   0  0  0  0  0  0  0  0  0  0  0  0
  -44.9847   55.1048   65.8574 H   0  0  0  0  0  0  0  0  0  0  0  0
  -44.3484   57.8128   66.9946 H   0  0  0  0  0  0  0  0  0  0  0  0
  -45.8514   57.3577   66.2078 H   0  0  0  0  0  0  0  0  0  0  0  0
  -45.6701   58.9759   64.5033 H   0  0  0  0  0  0  0  0  0  0  0  0
  -45.1018   58.1219   63.0888 H   0  0  0  0  0  0  0  0  0  0  0  0
  -44.0961   59.3390   63.8373 H   0  0  0  0  0  0  0  0  0  0  0  0
  -42.6690   56.1419   65.0787 H   0  0  0  0  0  0  0  0  0  0  0  0
  -43.2151   57.0125   62.3685 H   0  0  0  0  0  0  0  0  0  0  0  0
  -41.6343   56.5681   62.9804 H   0  0  0  0  0  0  0  0  0  0  0  0
  -41.3263   58.8260   63.8525 H   0  0  0  0  0  0  0  0  0  0  0  0
  -42.9135   59.2736   63.2621 H   0  0  0  0  0  0  0  0  0  0  0  0
  -41.1012   60.9700   62.3327 H   0  0  0  0  0  0  0  0  0  0  0  0
  -41.4895   60.7791   60.6398 H   0  0  0  0  0  0  0  0  0  0  0  0
  -39.9133   60.3129   61.2327 H   0  0  0  0  0  0  0  0  0  0  0  0
  -41.7370   57.0861   60.9841 H   0  0  0  0  0  0  0  0  0  0  0  0
  -41.5324   58.1707   58.6755 H   0  0  0  0  0  0  0  0  0  0  0  0
  -40.4823   59.3666   59.4095 H   0  0  0  0  0  0  0  0  0  0  0  0
  1  3  1  0  0  0  0
  1 17  1  0  0  0  0
  1 18  1  0  0  0  0
  1 19  1  0  0  0  0
  2 16  1  0  0  0  0
  2 20  1  0  0  0  0
  3  4  1  0  0  0  0
  3  5  2  0  0  0  0
  4 21  1  0  0  0  0
  4 22  1  0  0  0  0
  4 23  1  0  0  0  0
  5  6  1  0  0  0  0
  5 24  1  0  0  0  0
  6  7  1  0  0  0  0
  6 25  1  0  0  0  0
  6 26  1  0  0  0  0
  7  8  1  0  0  0  0
  7 27  1  0  0  0  0
  7 28  1  0  0  0  0
  8  9  1  0  0  0  0
  8 10  2  0  0  0  0
  9 29  1  0  0  0  0
  9 30  1  0  0  0  0
  9 31  1  0  0  0  0
 10 11  1  0  0  0  0
 10 32  1  0  0  0  0
 11 12  1  0  0  0  0
 11 33  1  0  0  0  0
 11 34  1  0  0  0  0
 12 13  1  0  0  0  0
 12 35  1  0  0  0  0
 12 36  1  0  0  0  0
 13 14  1  0  0  0  0
 13 15  2  0  0  0  0
 14 37  1  0  0  0  0
 14 38  1  0  0  0  0
 14 39  1  0  0  0  0
 15 16  1  0  0  0  0
 15 40  1  0  0  0  0
 16 41  1  0  0  0  0
 16 42  1  0  0  0  0
M  END
$$$$