/media/chris/experiments/cd1a-new-docking/inputs/ligands/6nux_ligand.pdb
 OpenBabel07022319323D

 42 41  0  0  0  0  0  0  0  0999 V2000
  -43.4001   58.8875   67.3170 C   0  0  0  0  0  0  0  0  0  0  0  0
  -46.3217   53.4467   63.5018 O   0  0  0  0  0  0  0  0  0  0  0  0
  -42.2956   57.8760   67.3552 C   0  0  0  0  0  0  0  0  0  0  0  0
  -40.8840   58.3278   67.5803 C   0  0  0  0  0  0  0  0  0  0  0  0
  -42.5650   56.5731   67.1848 C   0  0  0  0  0  0  0  0  0  0  0  0
  -43.9840   56.1057   66.9565 C   0  0  0  0  0  0  0  0  0  0  0  0
  -44.7960   57.1870   66.2510 C   0  0  0  0  0  0  0  0  0  0  0  0
  -44.1950   57.5130   64.9000 C   0  0  0  0  0  0  0  0  0  0  0  0
  -44.8100   58.5630   64.0190 C   0  0  0  0  0  0  0  0  0  0  0  0
  -43.0990   56.8650   64.4810 C   0  0  0  0  0  0  0  0  0  0  0  0
  -42.4910   57.1900   63.1360 C   0  0  0  0  0  0  0  0  0  0  0  0
  -43.5074   56.9465   62.0271 C   0  0  0  0  0  0  0  0  0  0  0  0
  -43.9537   55.5005   62.0405 C   0  0  0  0  0  0  0  0  0  0  0  0
  -42.9434   54.4102   61.8611 C   0  0  0  0  0  0  0  0  0  0  0  0
  -45.2455   55.1892   62.2224 C   0  0  0  0  0  0  0  0  0  0  0  0
  -45.7094   53.7506   62.2435 C   0  0  0  0  0  0  0  0  0  0  0  0
  -42.9938   59.8653   67.4714 H   0  0  0  0  0  0  0  0  0  0  0  0
  -44.1095   58.6703   68.0880 H   0  0  0  0  0  0  0  0  0  0  0  0
  -43.8858   58.8495   66.3643 H   0  0  0  0  0  0  0  0  0  0  0  0
  -46.6150   52.5221   63.5036 H   0  0  0  0  0  0  0  0  0  0  0  0
  -40.8639   59.3915   67.6943 H   0  0  0  0  0  0  0  0  0  0  0  0
  -40.2818   58.0474   66.7415 H   0  0  0  0  0  0  0  0  0  0  0  0
  -40.4989   57.8668   68.4658 H   0  0  0  0  0  0  0  0  0  0  0  0
  -41.7970   55.8842   67.2098 H   0  0  0  0  0  0  0  0  0  0  0  0
  -44.4377   55.8840   67.8999 H   0  0  0  0  0  0  0  0  0  0  0  0
  -43.9652   55.2305   66.3412 H   0  0  0  0  0  0  0  0  0  0  0  0
  -44.8032   58.0706   66.8545 H   0  0  0  0  0  0  0  0  0  0  0  0
  -45.7934   56.8279   66.1058 H   0  0  0  0  0  0  0  0  0  0  0  0
  -45.6701   58.9759   64.5033 H   0  0  0  0  0  0  0  0  0  0  0  0
  -45.1018   58.1219   63.0888 H   0  0  0  0  0  0  0  0  0  0  0  0
  -44.0961   59.3390   63.8373 H   0  0  0  0  0  0  0  0  0  0  0  0
  -42.6690   56.1419   65.0787 H   0  0  0  0  0  0  0  0  0  0  0  0
  -41.6359   56.5673   62.9748 H   0  0  0  0  0  0  0  0  0  0  0  0
  -42.2003   58.2197   63.1236 H   0  0  0  0  0  0  0  0  0  0  0  0
  -43.0600   57.1702   61.0812 H   0  0  0  0  0  0  0  0  0  0  0  0
  -44.3572   57.5772   62.1855 H   0  0  0  0  0  0  0  0  0  0  0  0
  -41.9729   54.8412   61.7299 H   0  0  0  0  0  0  0  0  0  0  0  0
  -43.1952   53.8290   60.9987 H   0  0  0  0  0  0  0  0  0  0  0  0
  -42.9402   53.7810   62.7266 H   0  0  0  0  0  0  0  0  0  0  0  0
  -45.9356   55.9458   62.3503 H   0  0  0  0  0  0  0  0  0  0  0  0
  -46.4199   53.5968   61.4584 H   0  0  0  0  0  0  0  0  0  0  0  0
  -44.8645   53.1093   62.1026 H   0  0  0  0  0  0  0  0  0  0  0  0
  1  3  1  0  0  0  0
  1 17  1  0  0  0  0
  1 18  1  0  0  0  0
  1 19  1  0  0  0  0
  2 16  1  0  0  0  0
  2 20  1  0  0  0  0
  3  4  1  0  0  0  0
  3  5  2  0  0  0  0
  4 21  1  0  0  0  0
  4 22  1  0  0  0  0
  4 23  1  0  0  0  0
  5  6  1  0  0  0  0
  5 24  1  0  0  0  0
  6  7  1  0  0  0  0
  6 25  1  0  0  0  0
  6 26  1  0  0  0  0
  7  8  1  0  0  0  0
  7 27  1  0  0  0  0
  7 28  1  0  0  0  0
  8  9  1  0  0  0  0
  8 10  2  0  0  0  0
  9 29  1  0  0  0  0
  9 30  1  0  0  0  0
  9 31  1  0  0  0  0
 10 11  1  0  0  0  0
 10 32  1  0  0  0  0
 11 12  1  0  0  0  0
 11 33  1  0  0  0  0
 11 34  1  0  0  0  0
 12 13  1  0  0  0  0
 12 35  1  0  0  0  0
 12 36  1  0  0  0  0
 13 14  1  0  0  0  0
 13 15  2  0  0  0  0
 14 37  1  0  0  0  0
 14 38  1  0  0  0  0
 14 39  1  0  0  0  0
 15 16  1  0  0  0  0
 15 40  1  0  0  0  0
 16 41  1  0  0  0  0
 16 42  1  0  0  0  0
M  END
$$$$