/media/chris/experiments/cd1a-new-docking/inputs/ligands/6nux_ligand.pdb
 OpenBabel07022319323D

 42 41  0  0  0  0  0  0  0  0999 V2000
  -44.4485   59.4894   66.9958 C   0  0  0  0  0  0  0  0  0  0  0  0
  -39.0283   54.0749   64.5765 O   0  0  0  0  0  0  0  0  0  0  0  0
  -43.0365   59.1105   67.3235 C   0  0  0  0  0  0  0  0  0  0  0  0
  -42.0094   60.1832   67.5274 C   0  0  0  0  0  0  0  0  0  0  0  0
  -42.6897   57.8192   67.4300 C   0  0  0  0  0  0  0  0  0  0  0  0
  -43.7163   56.7289   67.2260 C   0  0  0  0  0  0  0  0  0  0  0  0
  -44.7960   57.1870   66.2510 C   0  0  0  0  0  0  0  0  0  0  0  0
  -44.1950   57.5130   64.9000 C   0  0  0  0  0  0  0  0  0  0  0  0
  -44.8100   58.5630   64.0190 C   0  0  0  0  0  0  0  0  0  0  0  0
  -43.0990   56.8650   64.4810 C   0  0  0  0  0  0  0  0  0  0  0  0
  -42.4910   57.1900   63.1360 C   0  0  0  0  0  0  0  0  0  0  0  0
  -42.4834   55.9507   62.2493 C   0  0  0  0  0  0  0  0  0  0  0  0
  -41.6852   54.8463   62.9079 C   0  0  0  0  0  0  0  0  0  0  0  0
  -42.3726   53.8721   63.8133 C   0  0  0  0  0  0  0  0  0  0  0  0
  -40.3692   54.7284   62.6775 C   0  0  0  0  0  0  0  0  0  0  0  0
  -39.5563   53.6291   63.3224 C   0  0  0  0  0  0  0  0  0  0  0  0
  -44.5312   60.5554   66.9540 H   0  0  0  0  0  0  0  0  0  0  0  0
  -45.1041   59.1102   67.7517 H   0  0  0  0  0  0  0  0  0  0  0  0
  -44.7186   59.0732   66.0478 H   0  0  0  0  0  0  0  0  0  0  0  0
  -38.5092   53.3621   64.9806 H   0  0  0  0  0  0  0  0  0  0  0  0
  -42.4664   61.1428   67.4039 H   0  0  0  0  0  0  0  0  0  0  0  0
  -41.2247   60.0669   66.8093 H   0  0  0  0  0  0  0  0  0  0  0  0
  -41.6038   60.1057   68.5145 H   0  0  0  0  0  0  0  0  0  0  0  0
  -41.7139   57.5681   67.6531 H   0  0  0  0  0  0  0  0  0  0  0  0
  -44.1688   56.4911   68.1660 H   0  0  0  0  0  0  0  0  0  0  0  0
  -43.2290   55.8662   66.8221 H   0  0  0  0  0  0  0  0  0  0  0  0
  -45.2747   58.0603   66.6422 H   0  0  0  0  0  0  0  0  0  0  0  0
  -45.5068   56.3965   66.1292 H   0  0  0  0  0  0  0  0  0  0  0  0
  -45.6701   58.9759   64.5033 H   0  0  0  0  0  0  0  0  0  0  0  0
  -45.1018   58.1219   63.0888 H   0  0  0  0  0  0  0  0  0  0  0  0
  -44.0961   59.3390   63.8373 H   0  0  0  0  0  0  0  0  0  0  0  0
  -42.6690   56.1419   65.0787 H   0  0  0  0  0  0  0  0  0  0  0  0
  -41.4865   57.5313   63.2752 H   0  0  0  0  0  0  0  0  0  0  0  0
  -43.0738   57.9535   62.6644 H   0  0  0  0  0  0  0  0  0  0  0  0
  -42.0409   56.1930   61.3057 H   0  0  0  0  0  0  0  0  0  0  0  0
  -43.4897   55.6172   62.1041 H   0  0  0  0  0  0  0  0  0  0  0  0
  -43.4118   54.1184   63.8791 H   0  0  0  0  0  0  0  0  0  0  0  0
  -41.9326   53.9189   64.7875 H   0  0  0  0  0  0  0  0  0  0  0  0
  -42.2648   52.8827   63.4204 H   0  0  0  0  0  0  0  0  0  0  0  0
  -39.9029   55.4005   62.0483 H   0  0  0  0  0  0  0  0  0  0  0  0
  -40.1817   52.7763   63.4854 H   0  0  0  0  0  0  0  0  0  0  0  0
  -38.7452   53.3689   62.6749 H   0  0  0  0  0  0  0  0  0  0  0  0
  1  3  1  0  0  0  0
  1 17  1  0  0  0  0
  1 18  1  0  0  0  0
  1 19  1  0  0  0  0
  2 16  1  0  0  0  0
  2 20  1  0  0  0  0
  3  4  1  0  0  0  0
  3  5  2  0  0  0  0
  4 21  1  0  0  0  0
  4 22  1  0  0  0  0
  4 23  1  0  0  0  0
  5  6  1  0  0  0  0
  5 24  1  0  0  0  0
  6  7  1  0  0  0  0
  6 25  1  0  0  0  0
  6 26  1  0  0  0  0
  7  8  1  0  0  0  0
  7 27  1  0  0  0  0
  7 28  1  0  0  0  0
  8  9  1  0  0  0  0
  8 10  2  0  0  0  0
  9 29  1  0  0  0  0
  9 30  1  0  0  0  0
  9 31  1  0  0  0  0
 10 11  1  0  0  0  0
 10 32  1  0  0  0  0
 11 12  1  0  0  0  0
 11 33  1  0  0  0  0
 11 34  1  0  0  0  0
 12 13  1  0  0  0  0
 12 35  1  0  0  0  0
 12 36  1  0  0  0  0
 13 14  1  0  0  0  0
 13 15  2  0  0  0  0
 14 37  1  0  0  0  0
 14 38  1  0  0  0  0
 14 39  1  0  0  0  0
 15 16  1  0  0  0  0
 15 40  1  0  0  0  0
 16 41  1  0  0  0  0
 16 42  1  0  0  0  0
M  END
$$$$