/media/chris/experiments/cd1a-new-docking/inputs/ligands/6nux_ligand.pdb
 OpenBabel07022319323D

 42 41  0  0  0  0  0  0  0  0999 V2000
  -43.9996   54.8817   66.0837 C   0  0  0  0  0  0  0  0  0  0  0  0
  -45.9056   52.9326   62.0228 O   0  0  0  0  0  0  0  0  0  0  0  0
  -45.2153   54.5811   65.2613 C   0  0  0  0  0  0  0  0  0  0  0  0
  -45.2581   53.3346   64.4296 C   0  0  0  0  0  0  0  0  0  0  0  0
  -46.2593   55.4233   65.2639 C   0  0  0  0  0  0  0  0  0  0  0  0
  -46.2274   56.6833   66.0979 C   0  0  0  0  0  0  0  0  0  0  0  0
  -44.7960   57.1870   66.2510 C   0  0  0  0  0  0  0  0  0  0  0  0
  -44.1950   57.5130   64.9000 C   0  0  0  0  0  0  0  0  0  0  0  0
  -44.8100   58.5630   64.0190 C   0  0  0  0  0  0  0  0  0  0  0  0
  -43.0990   56.8650   64.4810 C   0  0  0  0  0  0  0  0  0  0  0  0
  -42.4910   57.1900   63.1360 C   0  0  0  0  0  0  0  0  0  0  0  0
  -42.4834   55.9507   62.2493 C   0  0  0  0  0  0  0  0  0  0  0  0
  -43.8989   55.4647   62.0246 C   0  0  0  0  0  0  0  0  0  0  0  0
  -45.0440   56.1996   62.6492 C   0  0  0  0  0  0  0  0  0  0  0  0
  -44.1348   54.3872   61.2616 C   0  0  0  0  0  0  0  0  0  0  0  0
  -45.5420   53.8898   61.0218 C   0  0  0  0  0  0  0  0  0  0  0  0
  -43.2791   54.1014   65.9536 H   0  0  0  0  0  0  0  0  0  0  0  0
  -44.2740   54.9453   67.1159 H   0  0  0  0  0  0  0  0  0  0  0  0
  -43.5774   55.8131   65.7688 H   0  0  0  0  0  0  0  0  0  0  0  0
  -46.8094   52.6208   61.8588 H   0  0  0  0  0  0  0  0  0  0  0  0
  -44.3444   52.7917   64.5534 H   0  0  0  0  0  0  0  0  0  0  0  0
  -45.3802   53.5972   63.3995 H   0  0  0  0  0  0  0  0  0  0  0  0
  -46.0802   52.7253   64.7422 H   0  0  0  0  0  0  0  0  0  0  0  0
  -47.0910   55.2091   64.6918 H   0  0  0  0  0  0  0  0  0  0  0  0
  -46.6328   56.4751   67.0660 H   0  0  0  0  0  0  0  0  0  0  0  0
  -46.8087   57.4367   65.6086 H   0  0  0  0  0  0  0  0  0  0  0  0
  -44.2062   56.4300   66.7242 H   0  0  0  0  0  0  0  0  0  0  0  0
  -44.8064   58.0762   66.8461 H   0  0  0  0  0  0  0  0  0  0  0  0
  -45.6701   58.9759   64.5033 H   0  0  0  0  0  0  0  0  0  0  0  0
  -45.1018   58.1219   63.0888 H   0  0  0  0  0  0  0  0  0  0  0  0
  -44.0961   59.3390   63.8373 H   0  0  0  0  0  0  0  0  0  0  0  0
  -42.6690   56.1419   65.0787 H   0  0  0  0  0  0  0  0  0  0  0  0
  -41.4865   57.5313   63.2752 H   0  0  0  0  0  0  0  0  0  0  0  0
  -43.0738   57.9535   62.6644 H   0  0  0  0  0  0  0  0  0  0  0  0
  -41.9153   55.1786   62.7248 H   0  0  0  0  0  0  0  0  0  0  0  0
  -42.0433   56.1973   61.3057 H   0  0  0  0  0  0  0  0  0  0  0  0
  -44.6702   57.0250   63.2183 H   0  0  0  0  0  0  0  0  0  0  0  0
  -45.5839   55.5375   63.2935 H   0  0  0  0  0  0  0  0  0  0  0  0
  -45.6964   56.5615   61.8822 H   0  0  0  0  0  0  0  0  0  0  0  0
  -43.3409   53.8885   60.8301 H   0  0  0  0  0  0  0  0  0  0  0  0
  -46.2204   54.7164   61.0603 H   0  0  0  0  0  0  0  0  0  0  0  0
  -45.5883   53.4236   60.0598 H   0  0  0  0  0  0  0  0  0  0  0  0
  1  3  1  0  0  0  0
  1 17  1  0  0  0  0
  1 18  1  0  0  0  0
  1 19  1  0  0  0  0
  2 16  1  0  0  0  0
  2 20  1  0  0  0  0
  3  4  1  0  0  0  0
  3  5  2  0  0  0  0
  4 21  1  0  0  0  0
  4 22  1  0  0  0  0
  4 23  1  0  0  0  0
  5  6  1  0  0  0  0
  5 24  1  0  0  0  0
  6  7  1  0  0  0  0
  6 25  1  0  0  0  0
  6 26  1  0  0  0  0
  7  8  1  0  0  0  0
  7 27  1  0  0  0  0
  7 28  1  0  0  0  0
  8  9  1  0  0  0  0
  8 10  2  0  0  0  0
  9 29  1  0  0  0  0
  9 30  1  0  0  0  0
  9 31  1  0  0  0  0
 10 11  1  0  0  0  0
 10 32  1  0  0  0  0
 11 12  1  0  0  0  0
 11 33  1  0  0  0  0
 11 34  1  0  0  0  0
 12 13  1  0  0  0  0
 12 35  1  0  0  0  0
 12 36  1  0  0  0  0
 13 14  1  0  0  0  0
 13 15  2  0  0  0  0
 14 37  1  0  0  0  0
 14 38  1  0  0  0  0
 14 39  1  0  0  0  0
 15 16  1  0  0  0  0
 15 40  1  0  0  0  0
 16 41  1  0  0  0  0
 16 42  1  0  0  0  0
M  END
$$$$