/media/chris/experiments/cd1a-new-docking/inputs/ligands/6nux_ligand.pdb
 OpenBabel07022319323D

 42 41  0  0  0  0  0  0  0  0999 V2000
  -41.2255   58.3618   68.2605 C   0  0  0  0  0  0  0  0  0  0  0  0
  -40.3243   56.5690   58.6529 O   0  0  0  0  0  0  0  0  0  0  0  0
  -41.3532   57.0296   67.5869 C   0  0  0  0  0  0  0  0  0  0  0  0
  -40.1333   56.1829   67.3813 C   0  0  0  0  0  0  0  0  0  0  0  0
  -42.5506   56.5966   67.1652 C   0  0  0  0  0  0  0  0  0  0  0  0
  -43.7874   57.4416   67.3664 C   0  0  0  0  0  0  0  0  0  0  0  0
  -44.7960   57.1870   66.2510 C   0  0  0  0  0  0  0  0  0  0  0  0
  -44.1950   57.5130   64.9000 C   0  0  0  0  0  0  0  0  0  0  0  0
  -44.8100   58.5630   64.0190 C   0  0  0  0  0  0  0  0  0  0  0  0
  -43.0990   56.8650   64.4810 C   0  0  0  0  0  0  0  0  0  0  0  0
  -42.4910   57.1900   63.1360 C   0  0  0  0  0  0  0  0  0  0  0  0
  -41.0574   57.6762   63.3109 C   0  0  0  0  0  0  0  0  0  0  0  0
  -40.4571   58.0172   61.9642 C   0  0  0  0  0  0  0  0  0  0  0  0
  -39.9770   59.4099   61.6967 C   0  0  0  0  0  0  0  0  0  0  0  0
  -40.3427   57.0783   61.0133 C   0  0  0  0  0  0  0  0  0  0  0  0
  -39.7415   57.3989   59.6639 C   0  0  0  0  0  0  0  0  0  0  0  0
  -40.2023   58.5320   68.5231 H   0  0  0  0  0  0  0  0  0  0  0  0
  -41.8275   58.3734   69.1450 H   0  0  0  0  0  0  0  0  0  0  0  0
  -41.5555   59.1314   67.5943 H   0  0  0  0  0  0  0  0  0  0  0  0
  -39.9313   56.7835   57.7924 H   0  0  0  0  0  0  0  0  0  0  0  0
  -39.2777   56.6876   67.7789 H   0  0  0  0  0  0  0  0  0  0  0  0
  -39.9913   56.0102   66.3349 H   0  0  0  0  0  0  0  0  0  0  0  0
  -40.2604   55.2465   67.8833 H   0  0  0  0  0  0  0  0  0  0  0  0
  -42.6280   55.6788   66.6996 H   0  0  0  0  0  0  0  0  0  0  0  0
  -43.5118   58.4755   67.3625 H   0  0  0  0  0  0  0  0  0  0  0  0
  -44.2348   57.1825   68.3031 H   0  0  0  0  0  0  0  0  0  0  0  0
  -45.6574   57.8016   66.4096 H   0  0  0  0  0  0  0  0  0  0  0  0
  -45.0697   56.1527   66.2648 H   0  0  0  0  0  0  0  0  0  0  0  0
  -45.6701   58.9759   64.5033 H   0  0  0  0  0  0  0  0  0  0  0  0
  -45.1018   58.1219   63.0888 H   0  0  0  0  0  0  0  0  0  0  0  0
  -44.0961   59.3390   63.8373 H   0  0  0  0  0  0  0  0  0  0  0  0
  -42.6690   56.1419   65.0787 H   0  0  0  0  0  0  0  0  0  0  0  0
  -43.0688   57.9561   62.6626 H   0  0  0  0  0  0  0  0  0  0  0  0
  -42.4893   56.3075   62.5309 H   0  0  0  0  0  0  0  0  0  0  0  0
  -40.4761   56.9057   63.7728 H   0  0  0  0  0  0  0  0  0  0  0  0
  -41.0565   58.5510   63.9269 H   0  0  0  0  0  0  0  0  0  0  0  0
  -40.1472   60.0179   62.5606 H   0  0  0  0  0  0  0  0  0  0  0  0
  -40.5104   59.8171   60.8633 H   0  0  0  0  0  0  0  0  0  0  0  0
  -38.9304   59.3899   61.4750 H   0  0  0  0  0  0  0  0  0  0  0  0
  -40.6712   56.1192   61.2064 H   0  0  0  0  0  0  0  0  0  0  0  0
  -39.9282   58.4260   59.4289 H   0  0  0  0  0  0  0  0  0  0  0  0
  -38.6876   57.2179   59.6994 H   0  0  0  0  0  0  0  0  0  0  0  0
  1  3  1  0  0  0  0
  1 17  1  0  0  0  0
  1 18  1  0  0  0  0
  1 19  1  0  0  0  0
  2 16  1  0  0  0  0
  2 20  1  0  0  0  0
  3  4  1  0  0  0  0
  3  5  2  0  0  0  0
  4 21  1  0  0  0  0
  4 22  1  0  0  0  0
  4 23  1  0  0  0  0
  5  6  1  0  0  0  0
  5 24  1  0  0  0  0
  6  7  1  0  0  0  0
  6 25  1  0  0  0  0
  6 26  1  0  0  0  0
  7  8  1  0  0  0  0
  7 27  1  0  0  0  0
  7 28  1  0  0  0  0
  8  9  1  0  0  0  0
  8 10  2  0  0  0  0
  9 29  1  0  0  0  0
  9 30  1  0  0  0  0
  9 31  1  0  0  0  0
 10 11  1  0  0  0  0
 10 32  1  0  0  0  0
 11 12  1  0  0  0  0
 11 33  1  0  0  0  0
 11 34  1  0  0  0  0
 12 13  1  0  0  0  0
 12 35  1  0  0  0  0
 12 36  1  0  0  0  0
 13 14  1  0  0  0  0
 13 15  2  0  0  0  0
 14 37  1  0  0  0  0
 14 38  1  0  0  0  0
 14 39  1  0  0  0  0
 15 16  1  0  0  0  0
 15 40  1  0  0  0  0
 16 41  1  0  0  0  0
 16 42  1  0  0  0  0
M  END
$$$$