/media/chris/experiments/cd1a-new-docking/inputs/ligands/6nux_ligand.pdb
 OpenBabel07022319323D

 42 41  0  0  0  0  0  0  0  0999 V2000
  -42.9761   55.5403   69.3503 C   0  0  0  0  0  0  0  0  0  0  0  0
  -44.9534   52.9854   62.6849 O   0  0  0  0  0  0  0  0  0  0  0  0
  -42.1749   55.7060   68.0952 C   0  0  0  0  0  0  0  0  0  0  0  0
  -40.9459   54.8738   67.8850 C   0  0  0  0  0  0  0  0  0  0  0  0
  -42.5506   56.5966   67.1652 C   0  0  0  0  0  0  0  0  0  0  0  0
  -43.7874   57.4416   67.3664 C   0  0  0  0  0  0  0  0  0  0  0  0
  -44.7960   57.1870   66.2510 C   0  0  0  0  0  0  0  0  0  0  0  0
  -44.1950   57.5130   64.9000 C   0  0  0  0  0  0  0  0  0  0  0  0
  -44.8100   58.5630   64.0190 C   0  0  0  0  0  0  0  0  0  0  0  0
  -43.0990   56.8650   64.4810 C   0  0  0  0  0  0  0  0  0  0  0  0
  -42.4910   57.1900   63.1360 C   0  0  0  0  0  0  0  0  0  0  0  0
  -43.5074   56.9465   62.0271 C   0  0  0  0  0  0  0  0  0  0  0  0
  -43.9537   55.5005   62.0405 C   0  0  0  0  0  0  0  0  0  0  0  0
  -45.3358   55.1459   61.5871 C   0  0  0  0  0  0  0  0  0  0  0  0
  -43.1163   54.5342   62.4455 C   0  0  0  0  0  0  0  0  0  0  0  0
  -43.5425   53.0839   62.4613 C   0  0  0  0  0  0  0  0  0  0  0  0
  -42.5244   54.7903   69.9654 H   0  0  0  0  0  0  0  0  0  0  0  0
  -43.9733   55.2436   69.1004 H   0  0  0  0  0  0  0  0  0  0  0  0
  -43.0028   56.4688   69.8816 H   0  0  0  0  0  0  0  0  0  0  0  0
  -45.2150   52.0513   62.6930 H   0  0  0  0  0  0  0  0  0  0  0  0
  -40.8057   54.2261   68.7250 H   0  0  0  0  0  0  0  0  0  0  0  0
  -40.0948   55.5141   67.7824 H   0  0  0  0  0  0  0  0  0  0  0  0
  -41.0599   54.2872   66.9974 H   0  0  0  0  0  0  0  0  0  0  0  0
  -41.9905   56.7056   66.3053 H   0  0  0  0  0  0  0  0  0  0  0  0
  -43.5118   58.4755   67.3625 H   0  0  0  0  0  0  0  0  0  0  0  0
  -44.2348   57.1825   68.3031 H   0  0  0  0  0  0  0  0  0  0  0  0
  -45.6574   57.8016   66.4096 H   0  0  0  0  0  0  0  0  0  0  0  0
  -45.0697   56.1527   66.2648 H   0  0  0  0  0  0  0  0  0  0  0  0
  -45.6701   58.9759   64.5033 H   0  0  0  0  0  0  0  0  0  0  0  0
  -45.1018   58.1219   63.0888 H   0  0  0  0  0  0  0  0  0  0  0  0
  -44.0961   59.3390   63.8373 H   0  0  0  0  0  0  0  0  0  0  0  0
  -42.6690   56.1419   65.0787 H   0  0  0  0  0  0  0  0  0  0  0  0
  -41.6359   56.5673   62.9748 H   0  0  0  0  0  0  0  0  0  0  0  0
  -42.2003   58.2197   63.1236 H   0  0  0  0  0  0  0  0  0  0  0  0
  -43.0600   57.1702   61.0812 H   0  0  0  0  0  0  0  0  0  0  0  0
  -44.3572   57.5772   62.1855 H   0  0  0  0  0  0  0  0  0  0  0  0
  -45.8573   56.0359   61.3030 H   0  0  0  0  0  0  0  0  0  0  0  0
  -45.8606   54.6644   62.3856 H   0  0  0  0  0  0  0  0  0  0  0  0
  -45.2772   54.4838   60.7485 H   0  0  0  0  0  0  0  0  0  0  0  0
  -42.1634   54.7854   62.7520 H   0  0  0  0  0  0  0  0  0  0  0  0
  -43.3016   52.6345   61.5206 H   0  0  0  0  0  0  0  0  0  0  0  0
  -43.0277   52.5774   63.2508 H   0  0  0  0  0  0  0  0  0  0  0  0
  1  3  1  0  0  0  0
  1 17  1  0  0  0  0
  1 18  1  0  0  0  0
  1 19  1  0  0  0  0
  2 16  1  0  0  0  0
  2 20  1  0  0  0  0
  3  4  1  0  0  0  0
  3  5  2  0  0  0  0
  4 21  1  0  0  0  0
  4 22  1  0  0  0  0
  4 23  1  0  0  0  0
  5  6  1  0  0  0  0
  5 24  1  0  0  0  0
  6  7  1  0  0  0  0
  6 25  1  0  0  0  0
  6 26  1  0  0  0  0
  7  8  1  0  0  0  0
  7 27  1  0  0  0  0
  7 28  1  0  0  0  0
  8  9  1  0  0  0  0
  8 10  2  0  0  0  0
  9 29  1  0  0  0  0
  9 30  1  0  0  0  0
  9 31  1  0  0  0  0
 10 11  1  0  0  0  0
 10 32  1  0  0  0  0
 11 12  1  0  0  0  0
 11 33  1  0  0  0  0
 11 34  1  0  0  0  0
 12 13  1  0  0  0  0
 12 35  1  0  0  0  0
 12 36  1  0  0  0  0
 13 14  1  0  0  0  0
 13 15  2  0  0  0  0
 14 37  1  0  0  0  0
 14 38  1  0  0  0  0
 14 39  1  0  0  0  0
 15 16  1  0  0  0  0
 15 40  1  0  0  0  0
 16 41  1  0  0  0  0
 16 42  1  0  0  0  0
M  END
$$$$