/media/chris/experiments/cd1a-new-docking/inputs/ligands/6nux_ligand.pdb
 OpenBabel07022319323D

 42 41  0  0  0  0  0  0  0  0999 V2000
  -45.1751   54.3249   66.6766 C   0  0  0  0  0  0  0  0  0  0  0  0
  -38.1336   58.8984   60.1963 O   0  0  0  0  0  0  0  0  0  0  0  0
  -43.6969   54.3788   66.4385 C   0  0  0  0  0  0  0  0  0  0  0  0
  -42.9858   53.1677   65.9141 C   0  0  0  0  0  0  0  0  0  0  0  0
  -43.0105   55.5019   66.6965 C   0  0  0  0  0  0  0  0  0  0  0  0
  -43.7163   56.7289   67.2260 C   0  0  0  0  0  0  0  0  0  0  0  0
  -44.7960   57.1870   66.2510 C   0  0  0  0  0  0  0  0  0  0  0  0
  -44.1950   57.5130   64.9000 C   0  0  0  0  0  0  0  0  0  0  0  0
  -44.8100   58.5630   64.0190 C   0  0  0  0  0  0  0  0  0  0  0  0
  -43.0990   56.8650   64.4810 C   0  0  0  0  0  0  0  0  0  0  0  0
  -42.4910   57.1900   63.1360 C   0  0  0  0  0  0  0  0  0  0  0  0
  -42.0598   58.6510   63.0933 C   0  0  0  0  0  0  0  0  0  0  0  0
  -41.4673   58.9779   61.7397 C   0  0  0  0  0  0  0  0  0  0  0  0
  -42.3540   59.4809   60.6432 C   0  0  0  0  0  0  0  0  0  0  0  0
  -40.1527   58.8301   61.5192 C   0  0  0  0  0  0  0  0  0  0  0  0
  -39.5421   59.1560   60.1753 C   0  0  0  0  0  0  0  0  0  0  0  0
  -45.5434   53.3550   66.4149 H   0  0  0  0  0  0  0  0  0  0  0  0
  -45.6605   55.0649   66.0753 H   0  0  0  0  0  0  0  0  0  0  0  0
  -45.3772   54.5162   67.7098 H   0  0  0  0  0  0  0  0  0  0  0  0
  -37.7532   59.1109   59.3297 H   0  0  0  0  0  0  0  0  0  0  0  0
  -43.6902   52.3754   65.7694 H   0  0  0  0  0  0  0  0  0  0  0  0
  -42.2411   52.8589   66.6176 H   0  0  0  0  0  0  0  0  0  0  0  0
  -42.5187   53.4045   64.9811 H   0  0  0  0  0  0  0  0  0  0  0  0
  -41.9920   55.5283   66.5321 H   0  0  0  0  0  0  0  0  0  0  0  0
  -43.0035   57.5161   67.3571 H   0  0  0  0  0  0  0  0  0  0  0  0
  -44.1754   56.4871   68.1618 H   0  0  0  0  0  0  0  0  0  0  0  0
  -45.2747   58.0603   66.6422 H   0  0  0  0  0  0  0  0  0  0  0  0
  -45.5068   56.3965   66.1292 H   0  0  0  0  0  0  0  0  0  0  0  0
  -45.6701   58.9759   64.5033 H   0  0  0  0  0  0  0  0  0  0  0  0
  -45.1018   58.1219   63.0888 H   0  0  0  0  0  0  0  0  0  0  0  0
  -44.0961   59.3390   63.8373 H   0  0  0  0  0  0  0  0  0  0  0  0
  -42.6690   56.1419   65.0787 H   0  0  0  0  0  0  0  0  0  0  0  0
  -43.2151   57.0125   62.3685 H   0  0  0  0  0  0  0  0  0  0  0  0
  -41.6343   56.5681   62.9804 H   0  0  0  0  0  0  0  0  0  0  0  0
  -41.3263   58.8260   63.8525 H   0  0  0  0  0  0  0  0  0  0  0  0
  -42.9135   59.2736   63.2621 H   0  0  0  0  0  0  0  0  0  0  0  0
  -43.3626   59.5346   60.9964 H   0  0  0  0  0  0  0  0  0  0  0  0
  -42.3034   58.8129   59.8088 H   0  0  0  0  0  0  0  0  0  0  0  0
  -42.0297   60.4547   60.3407 H   0  0  0  0  0  0  0  0  0  0  0  0
  -39.5467   58.4876   62.2812 H   0  0  0  0  0  0  0  0  0  0  0  0
  -40.0010   58.5500   59.4223 H   0  0  0  0  0  0  0  0  0  0  0  0
  -39.7044   60.1915   59.9600 H   0  0  0  0  0  0  0  0  0  0  0  0
  1  3  1  0  0  0  0
  1 17  1  0  0  0  0
  1 18  1  0  0  0  0
  1 19  1  0  0  0  0
  2 16  1  0  0  0  0
  2 20  1  0  0  0  0
  3  4  1  0  0  0  0
  3  5  2  0  0  0  0
  4 21  1  0  0  0  0
  4 22  1  0  0  0  0
  4 23  1  0  0  0  0
  5  6  1  0  0  0  0
  5 24  1  0  0  0  0
  6  7  1  0  0  0  0
  6 25  1  0  0  0  0
  6 26  1  0  0  0  0
  7  8  1  0  0  0  0
  7 27  1  0  0  0  0
  7 28  1  0  0  0  0
  8  9  1  0  0  0  0
  8 10  2  0  0  0  0
  9 29  1  0  0  0  0
  9 30  1  0  0  0  0
  9 31  1  0  0  0  0
 10 11  1  0  0  0  0
 10 32  1  0  0  0  0
 11 12  1  0  0  0  0
 11 33  1  0  0  0  0
 11 34  1  0  0  0  0
 12 13  1  0  0  0  0
 12 35  1  0  0  0  0
 12 36  1  0  0  0  0
 13 14  1  0  0  0  0
 13 15  2  0  0  0  0
 14 37  1  0  0  0  0
 14 38  1  0  0  0  0
 14 39  1  0  0  0  0
 15 16  1  0  0  0  0
 15 40  1  0  0  0  0
 16 41  1  0  0  0  0
 16 42  1  0  0  0  0
M  END
$$$$