/media/chris/experiments/cd1a-new-docking/inputs/ligands/7sh4_ligand.pdb
 OpenBabel07012320073D

134133  0  0  1  0  0  0  0  0999 V2000
  -39.3506   64.1627   61.2623 C   0  0  0  0  0  0  0  0  0  0  0  0
  -34.4062   58.3144   63.3762 O   0  0  0  0  0  0  0  0  0  0  0  0
  -37.3680   62.0442   66.7111 P   0  0  1  0  0  0  0  0  0  0  0  0
  -38.3878   65.1367   60.6218 C   0  0  0  0  0  0  0  0  0  0  0  0
  -36.1511   59.3213   62.4064 O   0  0  0  0  0  0  0  0  0  0  0  0
  -37.9943   64.7216   59.2169 C   0  0  0  0  0  0  0  0  0  0  0  0
  -36.4293   62.0282   65.4148 O   0  0  0  0  0  0  0  0  0  0  0  0
  -37.0141   65.6554   58.5296 C   0  0  0  0  0  0  0  0  0  0  0  0
  -38.7670   62.2101   66.2615 O   0  5  0  0  0  0  0  0  0  0  0  0
  -36.6503   65.2237   57.1158 C   0  0  0  0  0  0  0  0  0  0  0  0
  -37.0227   60.8682   67.5456 O   0  0  0  0  0  0  0  0  0  0  0  0
  -36.0195   63.8482   57.0442 C   0  0  0  0  0  0  0  0  0  0  0  0
  -36.9525   63.3558   67.5173 O   0  0  0  0  0  0  0  0  0  0  0  0
  -34.7406   63.7290   57.8507 C   0  0  0  0  0  0  0  0  0  0  0  0
  -40.1167   62.1203   67.9725 O   0  0  0  0  0  0  0  0  0  0  0  0
  -33.6463   64.7008   57.4238 C   0  0  0  0  0  0  0  0  0  0  0  0
  -39.4110   63.7696   70.1829 O   0  0  0  0  0  0  0  0  0  0  0  0
  -32.3650   64.5676   58.2198 C   0  0  0  0  0  0  0  0  0  0  0  0
  -38.2720   59.8520   65.2990 O   0  0  0  0  0  0  0  0  0  0  0  0
  -31.7104   63.2050   58.1145 C   0  0  0  0  0  0  0  0  0  0  0  0
  -40.0171   59.9196   63.8811 O   0  0  0  0  0  0  0  0  0  0  0  0
  -32.6099   62.0863   58.5914 C   0  0  0  0  0  0  0  0  0  0  0  0
  -31.9677   60.7267   58.5091 C   0  0  0  0  0  0  0  0  0  0  0  0
  -32.8784   59.6154   58.9709 C   0  0  0  0  0  0  0  0  0  0  0  0
  -32.2303   58.2473   58.9057 C   0  0  0  0  0  0  0  0  0  0  0  0
  -33.1507   57.1343   59.3529 C   0  0  0  0  0  0  0  0  0  0  0  0
  -33.6532   57.2784   60.7740 C   0  0  0  0  0  0  0  0  0  0  0  0
  -34.4561   58.5504   60.9878 C   0  0  0  0  0  0  0  0  0  0  0  0
  -34.9553   58.7317   62.3924 C   0  0  0  0  0  0  0  0  0  0  0  0
  -37.0720   58.9080   63.4380 C   0  0  0  0  0  0  0  0  0  0  0  0
  -37.3490   60.1700   64.2050 C   0  0  2  0  0  0  0  0  0  0  0  0
  -36.0840   60.8130   64.7130 C   0  0  0  0  0  0  0  0  0  0  0  0
  -37.9297   64.0491   68.3201 C   0  0  0  0  0  0  0  0  0  0  0  0
  -38.4272   63.1036   69.3856 C   0  0  2  0  0  0  0  0  0  0  0  0
  -39.0003   61.8332   68.8048 C   0  0  0  0  0  0  0  0  0  0  0  0
  -39.5790   59.7587   64.9875 C   0  0  0  0  0  0  0  0  0  0  0  0
  -40.4161   59.4128   66.1798 C   0  0  0  0  0  0  0  0  0  0  0  0
  -39.6338   58.5779   67.1886 C   0  0  0  0  0  0  0  0  0  0  0  0
  -40.4381   58.1807   68.4155 C   0  0  0  0  0  0  0  0  0  0  0  0
  -41.6634   57.3331   68.0933 C   0  0  0  0  0  0  0  0  0  0  0  0
  -41.3406   56.0153   67.4139 C   0  0  0  0  0  0  0  0  0  0  0  0
  -40.4543   55.0754   68.2361 C   0  0  0  0  0  0  0  0  0  0  0  0
  -41.0403   54.6366   69.5798 C   0  0  0  0  0  0  0  0  0  0  0  0
  -42.3292   53.8882   69.4166 C   0  0  0  0  0  0  0  0  0  0  0  0
  -42.4701   52.5847   69.2741 C   0  0  0  0  0  0  0  0  0  0  0  0
  -41.3663   51.5752   69.2473 C   0  0  0  0  0  0  0  0  0  0  0  0
  -41.0387   51.0333   70.6356 C   0  0  0  0  0  0  0  0  0  0  0  0
  -40.6094   52.1049   71.6224 C   0  0  0  0  0  0  0  0  0  0  0  0
  -41.6681   53.1655   71.8699 C   0  0  0  0  0  0  0  0  0  0  0  0
  -41.2512   54.2566   72.8421 C   0  0  0  0  0  0  0  0  0  0  0  0
  -42.3341   55.2966   73.0860 C   0  0  0  0  0  0  0  0  0  0  0  0
  -42.7886   56.0260   71.8374 C   0  0  0  0  0  0  0  0  0  0  0  0
  -43.8460   57.0567   72.1185 C   0  0  0  0  0  0  0  0  0  0  0  0
  -39.5958   64.4996   62.2479 H   0  0  0  0  0  0  0  0  0  0  0  0
  -38.8952   63.1961   61.3188 H   0  0  0  0  0  0  0  0  0  0  0  0
  -40.2421   64.1031   60.6736 H   0  0  0  0  0  0  0  0  0  0  0  0
  -37.5048   65.1929   61.2236 H   0  0  0  0  0  0  0  0  0  0  0  0
  -38.8787   66.0852   60.5563 H   0  0  0  0  0  0  0  0  0  0  0  0
  -38.8826   64.6748   58.6222 H   0  0  0  0  0  0  0  0  0  0  0  0
  -37.4983   63.7780   59.3087 H   0  0  0  0  0  0  0  0  0  0  0  0
  -36.1178   65.6939   59.1127 H   0  0  0  0  0  0  0  0  0  0  0  0
  -37.4911   66.6102   58.4532 H   0  0  0  0  0  0  0  0  0  0  0  0
  -35.9591   65.9341   56.7127 H   0  0  0  0  0  0  0  0  0  0  0  0
  -37.5618   65.1800   56.5571 H   0  0  0  0  0  0  0  0  0  0  0  0
  -37.2665   60.0554   67.0756 H   0  0  0  0  0  0  0  0  0  0  0  0
  -35.7966   63.6302   56.0207 H   0  0  0  0  0  0  0  0  0  0  0  0
  -36.7215   63.1568   57.4616 H   0  0  0  0  0  0  0  0  0  0  0  0
  -34.3664   62.7323   57.7429 H   0  0  0  0  0  0  0  0  0  0  0  0
  -34.9895   63.9680   58.8635 H   0  0  0  0  0  0  0  0  0  0  0  0
  -40.4704   61.2933   67.6093 H   0  0  0  0  0  0  0  0  0  0  0  0
  -34.0155   65.6979   57.5434 H   0  0  0  0  0  0  0  0  0  0  0  0
  -33.4061   64.4718   56.4066 H   0  0  0  0  0  0  0  0  0  0  0  0
  -39.0323   64.5835   70.5505 H   0  0  0  0  0  0  0  0  0  0  0  0
  -32.5880   64.7546   59.2495 H   0  0  0  0  0  0  0  0  0  0  0  0
  -31.6733   65.2747   57.8119 H   0  0  0  0  0  0  0  0  0  0  0  0
  -30.8208   63.2059   58.7091 H   0  0  0  0  0  0  0  0  0  0  0  0
  -31.4959   63.0287   57.0812 H   0  0  0  0  0  0  0  0  0  0  0  0
  -33.4937   62.0811   57.9883 H   0  0  0  0  0  0  0  0  0  0  0  0
  -32.8255   62.2720   59.6229 H   0  0  0  0  0  0  0  0  0  0  0  0
  -31.0909   60.7261   59.1223 H   0  0  0  0  0  0  0  0  0  0  0  0
  -31.7360   60.5440   57.4806 H   0  0  0  0  0  0  0  0  0  0  0  0
  -33.7495   59.6091   58.3496 H   0  0  0  0  0  0  0  0  0  0  0  0
  -33.1177   59.8056   59.9963 H   0  0  0  0  0  0  0  0  0  0  0  0
  -31.3662   58.2492   59.5368 H   0  0  0  0  0  0  0  0  0  0  0  0
  -31.9781   58.0616   57.8826 H   0  0  0  0  0  0  0  0  0  0  0  0
  -32.6195   56.2086   59.2770 H   0  0  0  0  0  0  0  0  0  0  0  0
  -34.0105   57.1720   58.7172 H   0  0  0  0  0  0  0  0  0  0  0  0
  -32.8117   57.2900   61.4347 H   0  0  0  0  0  0  0  0  0  0  0  0
  -34.3017   56.4507   60.9720 H   0  0  0  0  0  0  0  0  0  0  0  0
  -35.3007   58.5290   60.3312 H   0  0  0  0  0  0  0  0  0  0  0  0
  -33.7968   59.3688   60.7868 H   0  0  0  0  0  0  0  0  0  0  0  0
  -36.6274   58.1683   64.0706 H   0  0  0  0  0  0  0  0  0  0  0  0
  -37.9610   58.4631   63.0423 H   0  0  0  0  0  0  0  0  0  0  0  0
  -37.7985   60.8886   63.5519 H   0  0  0  0  0  0  0  0  0  0  0  0
  -35.5824   60.1428   65.3795 H   0  0  0  0  0  0  0  0  0  0  0  0
  -35.4356   61.0386   63.8923 H   0  0  0  0  0  0  0  0  0  0  0  0
  -38.7469   64.3622   67.7044 H   0  0  0  0  0  0  0  0  0  0  0  0
  -37.4886   64.9131   68.7717 H   0  0  0  0  0  0  0  0  0  0  0  0
  -37.5915   62.8195   69.9904 H   0  0  0  0  0  0  0  0  0  0  0  0
  -38.2474   61.3411   68.2252 H   0  0  0  0  0  0  0  0  0  0  0  0
  -39.3223   61.2026   69.6071 H   0  0  0  0  0  0  0  0  0  0  0  0
  -41.2701   58.8558   65.8553 H   0  0  0  0  0  0  0  0  0  0  0  0
  -40.7139   60.3232   66.6565 H   0  0  0  0  0  0  0  0  0  0  0  0
  -38.7863   59.1460   67.5109 H   0  0  0  0  0  0  0  0  0  0  0  0
  -39.3564   57.6713   66.6925 H   0  0  0  0  0  0  0  0  0  0  0  0
  -40.7638   59.0721   68.9097 H   0  0  0  0  0  0  0  0  0  0  0  0
  -39.7974   57.5850   69.0317 H   0  0  0  0  0  0  0  0  0  0  0  0
  -42.3024   57.8974   67.4466 H   0  0  0  0  0  0  0  0  0  0  0  0
  -42.1291   57.0944   69.0266 H   0  0  0  0  0  0  0  0  0  0  0  0
  -40.8379   56.2283   66.4937 H   0  0  0  0  0  0  0  0  0  0  0  0
  -42.2730   55.5090   67.2749 H   0  0  0  0  0  0  0  0  0  0  0  0
  -39.5281   55.5762   68.4266 H   0  0  0  0  0  0  0  0  0  0  0  0
  -40.3464   54.1841   67.6540 H   0  0  0  0  0  0  0  0  0  0  0  0
  -41.2194   55.5054   70.1781 H   0  0  0  0  0  0  0  0  0  0  0  0
  -40.3360   53.9809   70.0476 H   0  0  0  0  0  0  0  0  0  0  0  0
  -43.1945   54.4506   69.4156 H   0  0  0  0  0  0  0  0  0  0  0  0
  -43.4328   52.2272   69.1715 H   0  0  0  0  0  0  0  0  0  0  0  0
  -40.4893   52.0358   68.8426 H   0  0  0  0  0  0  0  0  0  0  0  0
  -41.6912   50.7528   68.6447 H   0  0  0  0  0  0  0  0  0  0  0  0
  -40.2448   50.3222   70.5422 H   0  0  0  0  0  0  0  0  0  0  0  0
  -41.9358   50.5948   71.0202 H   0  0  0  0  0  0  0  0  0  0  0  0
  -39.7330   52.5850   71.2398 H   0  0  0  0  0  0  0  0  0  0  0  0
  -40.4314   51.6161   72.5574 H   0  0  0  0  0  0  0  0  0  0  0  0
  -42.5391   52.6834   72.2620 H   0  0  0  0  0  0  0  0  0  0  0  0
  -41.8436   53.6459   70.9300 H   0  0  0  0  0  0  0  0  0  0  0  0
  -40.3889   54.7515   72.4465 H   0  0  0  0  0  0  0  0  0  0  0  0
  -41.0517   53.7831   73.7807 H   0  0  0  0  0  0  0  0  0  0  0  0
  -41.9550   56.0197   73.7776 H   0  0  0  0  0  0  0  0  0  0  0  0
  -43.1865   54.7701   73.4617 H   0  0  0  0  0  0  0  0  0  0  0  0
  -43.1839   55.3098   71.1477 H   0  0  0  0  0  0  0  0  0  0  0  0
  -41.9390   56.5369   71.4349 H   0  0  0  0  0  0  0  0  0  0  0  0
  -44.7127   56.5774   72.5236 H   0  0  0  0  0  0  0  0  0  0  0  0
  -44.1072   57.5569   71.2094 H   0  0  0  0  0  0  0  0  0  0  0  0
  -43.4709   57.7696   72.8228 H   0  0  0  0  0  0  0  0  0  0  0  0
  1  4  1  0  0  0  0
  1 54  1  0  0  0  0
  1 55  1  0  0  0  0
  1 56  1  0  0  0  0
  2 29  2  0  0  0  0
  3  7  1  0  0  0  0
  3  9  2  6  0  0  0
  3 11  1  0  0  0  0
  3 13  1  0  0  0  0
  4  6  1  0  0  0  0
  4 57  1  0  0  0  0
  4 58  1  0  0  0  0
  5 29  1  0  0  0  0
  5 30  1  0  0  0  0
  6  8  1  0  0  0  0
  6 59  1  0  0  0  0
  6 60  1  0  0  0  0
  7 32  1  0  0  0  0
  8 10  1  0  0  0  0
  8 61  1  0  0  0  0
  8 62  1  0  0  0  0
 10 12  1  0  0  0  0
 10 63  1  0  0  0  0
 10 64  1  0  0  0  0
 11 65  1  0  0  0  0
 12 14  1  0  0  0  0
 12 66  1  0  0  0  0
 12 67  1  0  0  0  0
 13 33  1  0  0  0  0
 14 16  1  0  0  0  0
 14 68  1  0  0  0  0
 14 69  1  0  0  0  0
 15 35  1  0  0  0  0
 15 70  1  0  0  0  0
 16 18  1  0  0  0  0
 16 71  1  0  0  0  0
 16 72  1  0  0  0  0
 17 34  1  0  0  0  0
 17 73  1  0  0  0  0
 18 20  1  0  0  0  0
 18 74  1  0  0  0  0
 18 75  1  0  0  0  0
 19 31  1  0  0  0  0
 19 36  1  0  0  0  0
 20 22  1  0  0  0  0
 20 76  1  0  0  0  0
 20 77  1  0  0  0  0
 21 36  2  0  0  0  0
 22 23  1  0  0  0  0
 22 78  1  0  0  0  0
 22 79  1  0  0  0  0
 23 24  1  0  0  0  0
 23 80  1  0  0  0  0
 23 81  1  0  0  0  0
 24 25  1  0  0  0  0
 24 82  1  0  0  0  0
 24 83  1  0  0  0  0
 25 26  1  0  0  0  0
 25 84  1  0  0  0  0
 25 85  1  0  0  0  0
 26 27  1  0  0  0  0
 26 86  1  0  0  0  0
 26 87  1  0  0  0  0
 27 28  1  0  0  0  0
 27 88  1  0  0  0  0
 27 89  1  0  0  0  0
 28 29  1  0  0  0  0
 28 90  1  0  0  0  0
 28 91  1  0  0  0  0
 30 31  1  0  0  0  0
 30 92  1  0  0  0  0
 30 93  1  0  0  0  0
 31 32  1  0  0  0  0
 31 94  1  6  0  0  0
 32 95  1  0  0  0  0
 32 96  1  0  0  0  0
 33 34  1  0  0  0  0
 33 97  1  0  0  0  0
 33 98  1  0  0  0  0
 34 35  1  0  0  0  0
 34 99  1  1  0  0  0
 35100  1  0  0  0  0
 35101  1  0  0  0  0
 36 37  1  0  0  0  0
 37 38  1  0  0  0  0
 37102  1  0  0  0  0
 37103  1  0  0  0  0
 38 39  1  0  0  0  0
 38104  1  0  0  0  0
 38105  1  0  0  0  0
 39 40  1  0  0  0  0
 39106  1  0  0  0  0
 39107  1  0  0  0  0
 40 41  1  0  0  0  0
 40108  1  0  0  0  0
 40109  1  0  0  0  0
 41 42  1  0  0  0  0
 41110  1  0  0  0  0
 41111  1  0  0  0  0
 42 43  1  0  0  0  0
 42112  1  0  0  0  0
 42113  1  0  0  0  0
 43 44  1  0  0  0  0
 43114  1  0  0  0  0
 43115  1  0  0  0  0
 44 45  2  0  0  0  0
 44116  1  0  0  0  0
 45 46  1  0  0  0  0
 45117  1  0  0  0  0
 46 47  1  0  0  0  0
 46118  1  0  0  0  0
 46119  1  0  0  0  0
 47 48  1  0  0  0  0
 47120  1  0  0  0  0
 47121  1  0  0  0  0
 48 49  1  0  0  0  0
 48122  1  0  0  0  0
 48123  1  0  0  0  0
 49 50  1  0  0  0  0
 49124  1  0  0  0  0
 49125  1  0  0  0  0
 50 51  1  0  0  0  0
 50126  1  0  0  0  0
 50127  1  0  0  0  0
 51 52  1  0  0  0  0
 51128  1  0  0  0  0
 51129  1  0  0  0  0
 52 53  1  0  0  0  0
 52130  1  0  0  0  0
 52131  1  0  0  0  0
 53132  1  0  0  0  0
 53133  1  0  0  0  0
 53134  1  0  0  0  0
M  CHG  1   9  -1
M  END
$$$$