/media/chris/experiments/cd1a-new-docking/inputs/ligands/7sh4_ligand.pdb
 OpenBabel07012320073D

134133  0  0  1  0  0  0  0  0999 V2000
  -41.3036   60.3304   49.9882 C   0  0  0  0  0  0  0  0  0  0  0  0
  -37.6819   60.5663   61.3545 O   0  0  0  0  0  0  0  0  0  0  0  0
  -35.3336   62.9877   66.0786 P   0  0  1  0  0  0  0  0  0  0  0  0
  -42.0523   60.4755   51.2936 C   0  0  0  0  0  0  0  0  0  0  0  0
  -36.1511   59.3213   62.4064 O   0  0  0  0  0  0  0  0  0  0  0  0
  -41.4324   61.5194   52.2030 C   0  0  0  0  0  0  0  0  0  0  0  0
  -36.4293   62.0282   65.4148 O   0  0  0  0  0  0  0  0  0  0  0  0
  -39.9886   61.2501   52.5878 C   0  0  0  0  0  0  0  0  0  0  0  0
  -35.4468   64.3191   65.4452 O   0  5  0  0  0  0  0  0  0  0  0  0
  -39.0411   61.1939   51.3976 C   0  0  0  0  0  0  0  0  0  0  0  0
  -35.4637   62.8865   67.5523 O   0  0  0  0  0  0  0  0  0  0  0  0
  -38.9877   62.4825   50.6025 C   0  0  0  0  0  0  0  0  0  0  0  0
  -33.9236   62.3666   65.6676 O   0  0  0  0  0  0  0  0  0  0  0  0
  -38.5119   63.6721   51.4141 C   0  0  0  0  0  0  0  0  0  0  0  0
  -29.8571   61.2465   65.7006 O   0  0  0  0  0  0  0  0  0  0  0  0
  -37.1038   63.5147   51.9766 C   0  0  0  0  0  0  0  0  0  0  0  0
  -32.1767   60.8525   64.1219 O   0  0  0  0  0  0  0  0  0  0  0  0
  -36.6383   64.6971   52.8005 C   0  0  0  0  0  0  0  0  0  0  0  0
  -38.2720   59.8520   65.2990 O   0  0  0  0  0  0  0  0  0  0  0  0
  -37.4939   64.9764   54.0196 C   0  0  0  0  0  0  0  0  0  0  0  0
  -39.9885   59.4115   63.9134 O   0  0  0  0  0  0  0  0  0  0  0  0
  -37.5225   63.8176   54.9914 C   0  0  0  0  0  0  0  0  0  0  0  0
  -36.1649   63.4618   55.5373 C   0  0  0  0  0  0  0  0  0  0  0  0
  -36.2010   62.2941   56.4926 C   0  0  0  0  0  0  0  0  0  0  0  0
  -34.8394   61.9434   57.0576 C   0  0  0  0  0  0  0  0  0  0  0  0
  -34.8762   60.7626   58.0011 C   0  0  0  0  0  0  0  0  0  0  0  0
  -35.7768   60.9567   59.2027 C   0  0  0  0  0  0  0  0  0  0  0  0
  -35.7767   59.7589   60.1375 C   0  0  0  0  0  0  0  0  0  0  0  0
  -36.6737   59.9130   61.3318 C   0  0  0  0  0  0  0  0  0  0  0  0
  -37.0720   58.9080   63.4380 C   0  0  0  0  0  0  0  0  0  0  0  0
  -37.3490   60.1700   64.2050 C   0  0  2  0  0  0  0  0  0  0  0  0
  -36.0840   60.8130   64.7130 C   0  0  0  0  0  0  0  0  0  0  0  0
  -33.5913   61.0161   66.0492 C   0  0  0  0  0  0  0  0  0  0  0  0
  -32.2030   60.7072   65.5449 C   0  0  2  0  0  0  0  0  0  0  0  0
  -31.1523   61.5874   66.1781 C   0  0  0  0  0  0  0  0  0  0  0  0
  -39.5790   59.7587   64.9875 C   0  0  0  0  0  0  0  0  0  0  0  0
  -40.4582   60.1211   66.1441 C   0  0  0  0  0  0  0  0  0  0  0  0
  -39.7897   59.7987   67.4767 C   0  0  0  0  0  0  0  0  0  0  0  0
  -40.6428   60.1298   68.6902 C   0  0  0  0  0  0  0  0  0  0  0  0
  -41.0329   61.6008   68.7783 C   0  0  0  0  0  0  0  0  0  0  0  0
  -39.8507   62.5495   68.8471 C   0  0  0  0  0  0  0  0  0  0  0  0
  -40.2277   64.0299   68.9531 C   0  0  0  0  0  0  0  0  0  0  0  0
  -39.0463   65.0010   69.0064 C   0  0  0  0  0  0  0  0  0  0  0  0
  -38.1459   64.7316   70.1746 C   0  0  0  0  0  0  0  0  0  0  0  0
  -37.8567   65.5657   71.1545 C   0  0  0  0  0  0  0  0  0  0  0  0
  -38.3714   66.9623   71.3057 C   0  0  0  0  0  0  0  0  0  0  0  0
  -39.8919   67.0128   71.4239 C   0  0  0  0  0  0  0  0  0  0  0  0
  -40.4354   66.2578   72.6243 C   0  0  0  0  0  0  0  0  0  0  0  0
  -41.9501   66.2938   72.7327 C   0  0  0  0  0  0  0  0  0  0  0  0
  -42.5128   65.5577   73.9373 C   0  0  0  0  0  0  0  0  0  0  0  0
  -44.0315   65.5939   74.0140 C   0  0  0  0  0  0  0  0  0  0  0  0
  -44.6107   64.8790   75.2186 C   0  0  0  0  0  0  0  0  0  0  0  0
  -46.1129   64.9206   75.2527 C   0  0  0  0  0  0  0  0  0  0  0  0
  -41.7790   59.5851   49.3854 H   0  0  0  0  0  0  0  0  0  0  0  0
  -40.2938   60.0376   50.1869 H   0  0  0  0  0  0  0  0  0  0  0  0
  -41.3081   61.2657   49.4686 H   0  0  0  0  0  0  0  0  0  0  0  0
  -42.0472   59.5326   51.7994 H   0  0  0  0  0  0  0  0  0  0  0  0
  -43.0484   60.7924   51.0649 H   0  0  0  0  0  0  0  0  0  0  0  0
  -42.0131   61.5665   53.1005 H   0  0  0  0  0  0  0  0  0  0  0  0
  -41.4319   62.4371   51.6527 H   0  0  0  0  0  0  0  0  0  0  0  0
  -39.9444   60.3117   53.0999 H   0  0  0  0  0  0  0  0  0  0  0  0
  -39.6707   62.0652   53.2038 H   0  0  0  0  0  0  0  0  0  0  0  0
  -39.3624   60.4080   50.7465 H   0  0  0  0  0  0  0  0  0  0  0  0
  -38.0588   61.0247   51.7866 H   0  0  0  0  0  0  0  0  0  0  0  0
  -36.3159   63.2589   67.8279 H   0  0  0  0  0  0  0  0  0  0  0  0
  -39.9696   62.6944   50.2338 H   0  0  0  0  0  0  0  0  0  0  0  0
  -38.2814   62.3367   49.8121 H   0  0  0  0  0  0  0  0  0  0  0  0
  -39.1873   63.8133   52.2320 H   0  0  0  0  0  0  0  0  0  0  0  0
  -38.4884   64.5107   50.7501 H   0  0  0  0  0  0  0  0  0  0  0  0
  -29.1969   61.8217   66.1180 H   0  0  0  0  0  0  0  0  0  0  0  0
  -36.4263   63.3862   51.1585 H   0  0  0  0  0  0  0  0  0  0  0  0
  -37.1225   62.6679   52.6304 H   0  0  0  0  0  0  0  0  0  0  0  0
  -32.8550   60.2832   63.7261 H   0  0  0  0  0  0  0  0  0  0  0  0
  -36.6483   65.5662   52.1765 H   0  0  0  0  0  0  0  0  0  0  0  0
  -35.6592   64.4571   53.1590 H   0  0  0  0  0  0  0  0  0  0  0  0
  -38.4942   65.1772   53.6969 H   0  0  0  0  0  0  0  0  0  0  0  0
  -37.0664   65.8147   54.5290 H   0  0  0  0  0  0  0  0  0  0  0  0
  -37.9203   62.9618   54.4872 H   0  0  0  0  0  0  0  0  0  0  0  0
  -38.1285   64.1160   55.8212 H   0  0  0  0  0  0  0  0  0  0  0  0
  -35.7713   64.3125   56.0533 H   0  0  0  0  0  0  0  0  0  0  0  0
  -35.5509   63.1782   54.7082 H   0  0  0  0  0  0  0  0  0  0  0  0
  -36.5836   61.4408   55.9726 H   0  0  0  0  0  0  0  0  0  0  0  0
  -36.8241   62.5755   57.3157 H   0  0  0  0  0  0  0  0  0  0  0  0
  -34.4619   62.7922   57.5885 H   0  0  0  0  0  0  0  0  0  0  0  0
  -34.2113   61.6748   56.2340 H   0  0  0  0  0  0  0  0  0  0  0  0
  -33.8817   60.5827   58.3525 H   0  0  0  0  0  0  0  0  0  0  0  0
  -35.2754   59.9386   57.4473 H   0  0  0  0  0  0  0  0  0  0  0  0
  -36.7763   61.1213   58.8579 H   0  0  0  0  0  0  0  0  0  0  0  0
  -35.4038   61.7951   59.7530 H   0  0  0  0  0  0  0  0  0  0  0  0
  -34.7769   59.6047   60.4859 H   0  0  0  0  0  0  0  0  0  0  0  0
  -36.1512   58.9290   59.5754 H   0  0  0  0  0  0  0  0  0  0  0  0
  -36.6274   58.1683   64.0706 H   0  0  0  0  0  0  0  0  0  0  0  0
  -37.9610   58.4631   63.0423 H   0  0  0  0  0  0  0  0  0  0  0  0
  -37.7985   60.8886   63.5519 H   0  0  0  0  0  0  0  0  0  0  0  0
  -35.5824   60.1428   65.3795 H   0  0  0  0  0  0  0  0  0  0  0  0
  -35.4356   61.0386   63.8923 H   0  0  0  0  0  0  0  0  0  0  0  0
  -34.2933   60.3348   65.6157 H   0  0  0  0  0  0  0  0  0  0  0  0
  -33.6268   60.9154   67.1139 H   0  0  0  0  0  0  0  0  0  0  0  0
  -31.9698   59.6993   65.8182 H   0  0  0  0  0  0  0  0  0  0  0  0
  -31.3580   62.6093   65.9366 H   0  0  0  0  0  0  0  0  0  0  0  0
  -31.1768   61.4444   67.2382 H   0  0  0  0  0  0  0  0  0  0  0  0
  -41.3727   59.5704   66.0717 H   0  0  0  0  0  0  0  0  0  0  0  0
  -40.6439   61.1742   66.1077 H   0  0  0  0  0  0  0  0  0  0  0  0
  -38.8802   60.3587   67.5414 H   0  0  0  0  0  0  0  0  0  0  0  0
  -39.6236   58.7418   67.4930 H   0  0  0  0  0  0  0  0  0  0  0  0
  -40.0926   59.8723   69.5711 H   0  0  0  0  0  0  0  0  0  0  0  0
  -41.5497   59.5693   68.5988 H   0  0  0  0  0  0  0  0  0  0  0  0
  -41.6270   61.7393   69.6574 H   0  0  0  0  0  0  0  0  0  0  0  0
  -41.5655   61.8343   67.8802 H   0  0  0  0  0  0  0  0  0  0  0  0
  -39.2642   62.4169   67.9620 H   0  0  0  0  0  0  0  0  0  0  0  0
  -39.3184   62.3069   69.7430 H   0  0  0  0  0  0  0  0  0  0  0  0
  -40.8048   64.1615   69.8445 H   0  0  0  0  0  0  0  0  0  0  0  0
  -40.7646   64.2644   68.0578 H   0  0  0  0  0  0  0  0  0  0  0  0
  -39.4236   65.9992   69.0847 H   0  0  0  0  0  0  0  0  0  0  0  0
  -38.4730   64.8712   68.1123 H   0  0  0  0  0  0  0  0  0  0  0  0
  -37.7078   63.7982   70.2163 H   0  0  0  0  0  0  0  0  0  0  0  0
  -37.2146   65.2226   71.8859 H   0  0  0  0  0  0  0  0  0  0  0  0
  -38.0743   67.5324   70.4504 H   0  0  0  0  0  0  0  0  0  0  0  0
  -37.9608   67.3652   72.2079 H   0  0  0  0  0  0  0  0  0  0  0  0
  -40.3142   66.5875   70.5376 H   0  0  0  0  0  0  0  0  0  0  0  0
  -40.1621   68.0403   71.5518 H   0  0  0  0  0  0  0  0  0  0  0  0
  -40.0227   66.6912   73.5113 H   0  0  0  0  0  0  0  0  0  0  0  0
  -40.1545   65.2325   72.5025 H   0  0  0  0  0  0  0  0  0  0  0  0
  -42.3591   65.8504   71.8490 H   0  0  0  0  0  0  0  0  0  0  0  0
  -42.2227   67.3218   72.8493 H   0  0  0  0  0  0  0  0  0  0  0  0
  -42.1178   66.0076   74.8242 H   0  0  0  0  0  0  0  0  0  0  0  0
  -42.2263   64.5312   73.8415 H   0  0  0  0  0  0  0  0  0  0  0  0
  -44.4230   65.1340   73.1307 H   0  0  0  0  0  0  0  0  0  0  0  0
  -44.3100   66.6230   74.1043 H   0  0  0  0  0  0  0  0  0  0  0  0
  -44.2354   65.3447   76.1059 H   0  0  0  0  0  0  0  0  0  0  0  0
  -44.3178   63.8518   75.1558 H   0  0  0  0  0  0  0  0  0  0  0  0
  -46.4403   65.9373   75.3157 H   0  0  0  0  0  0  0  0  0  0  0  0
  -46.4655   64.3789   76.1055 H   0  0  0  0  0  0  0  0  0  0  0  0
  -46.5024   64.4751   74.3612 H   0  0  0  0  0  0  0  0  0  0  0  0
  1  4  1  0  0  0  0
  1 54  1  0  0  0  0
  1 55  1  0  0  0  0
  1 56  1  0  0  0  0
  2 29  2  0  0  0  0
  3  7  1  0  0  0  0
  3  9  2  6  0  0  0
  3 11  1  0  0  0  0
  3 13  1  0  0  0  0
  4  6  1  0  0  0  0
  4 57  1  0  0  0  0
  4 58  1  0  0  0  0
  5 29  1  0  0  0  0
  5 30  1  0  0  0  0
  6  8  1  0  0  0  0
  6 59  1  0  0  0  0
  6 60  1  0  0  0  0
  7 32  1  0  0  0  0
  8 10  1  0  0  0  0
  8 61  1  0  0  0  0
  8 62  1  0  0  0  0
 10 12  1  0  0  0  0
 10 63  1  0  0  0  0
 10 64  1  0  0  0  0
 11 65  1  0  0  0  0
 12 14  1  0  0  0  0
 12 66  1  0  0  0  0
 12 67  1  0  0  0  0
 13 33  1  0  0  0  0
 14 16  1  0  0  0  0
 14 68  1  0  0  0  0
 14 69  1  0  0  0  0
 15 35  1  0  0  0  0
 15 70  1  0  0  0  0
 16 18  1  0  0  0  0
 16 71  1  0  0  0  0
 16 72  1  0  0  0  0
 17 34  1  0  0  0  0
 17 73  1  0  0  0  0
 18 20  1  0  0  0  0
 18 74  1  0  0  0  0
 18 75  1  0  0  0  0
 19 31  1  0  0  0  0
 19 36  1  0  0  0  0
 20 22  1  0  0  0  0
 20 76  1  0  0  0  0
 20 77  1  0  0  0  0
 21 36  2  0  0  0  0
 22 23  1  0  0  0  0
 22 78  1  0  0  0  0
 22 79  1  0  0  0  0
 23 24  1  0  0  0  0
 23 80  1  0  0  0  0
 23 81  1  0  0  0  0
 24 25  1  0  0  0  0
 24 82  1  0  0  0  0
 24 83  1  0  0  0  0
 25 26  1  0  0  0  0
 25 84  1  0  0  0  0
 25 85  1  0  0  0  0
 26 27  1  0  0  0  0
 26 86  1  0  0  0  0
 26 87  1  0  0  0  0
 27 28  1  0  0  0  0
 27 88  1  0  0  0  0
 27 89  1  0  0  0  0
 28 29  1  0  0  0  0
 28 90  1  0  0  0  0
 28 91  1  0  0  0  0
 30 31  1  0  0  0  0
 30 92  1  0  0  0  0
 30 93  1  0  0  0  0
 31 32  1  0  0  0  0
 31 94  1  6  0  0  0
 32 95  1  0  0  0  0
 32 96  1  0  0  0  0
 33 34  1  0  0  0  0
 33 97  1  0  0  0  0
 33 98  1  0  0  0  0
 34 35  1  0  0  0  0
 34 99  1  1  0  0  0
 35100  1  0  0  0  0
 35101  1  0  0  0  0
 36 37  1  0  0  0  0
 37 38  1  0  0  0  0
 37102  1  0  0  0  0
 37103  1  0  0  0  0
 38 39  1  0  0  0  0
 38104  1  0  0  0  0
 38105  1  0  0  0  0
 39 40  1  0  0  0  0
 39106  1  0  0  0  0
 39107  1  0  0  0  0
 40 41  1  0  0  0  0
 40108  1  0  0  0  0
 40109  1  0  0  0  0
 41 42  1  0  0  0  0
 41110  1  0  0  0  0
 41111  1  0  0  0  0
 42 43  1  0  0  0  0
 42112  1  0  0  0  0
 42113  1  0  0  0  0
 43 44  1  0  0  0  0
 43114  1  0  0  0  0
 43115  1  0  0  0  0
 44 45  2  0  0  0  0
 44116  1  0  0  0  0
 45 46  1  0  0  0  0
 45117  1  0  0  0  0
 46 47  1  0  0  0  0
 46118  1  0  0  0  0
 46119  1  0  0  0  0
 47 48  1  0  0  0  0
 47120  1  0  0  0  0
 47121  1  0  0  0  0
 48 49  1  0  0  0  0
 48122  1  0  0  0  0
 48123  1  0  0  0  0
 49 50  1  0  0  0  0
 49124  1  0  0  0  0
 49125  1  0  0  0  0
 50 51  1  0  0  0  0
 50126  1  0  0  0  0
 50127  1  0  0  0  0
 51 52  1  0  0  0  0
 51128  1  0  0  0  0
 51129  1  0  0  0  0
 52 53  1  0  0  0  0
 52130  1  0  0  0  0
 52131  1  0  0  0  0
 53132  1  0  0  0  0
 53133  1  0  0  0  0
 53134  1  0  0  0  0
M  CHG  1   9  -1
M  END
$$$$