/media/chris/experiments/cd1a-new-docking/inputs/ligands/7sh4_ligand.pdb
 OpenBabel07012320073D

134133  0  0  1  0  0  0  0  0999 V2000
  -44.2559   51.3392   54.1570 C   0  0  0  0  0  0  0  0  0  0  0  0
  -39.2991   60.4756   62.4545 O   0  0  0  0  0  0  0  0  0  0  0  0
  -34.0491   60.2433   66.3537 P   0  0  1  0  0  0  0  0  0  0  0  0
  -42.7772   51.1622   53.8961 C   0  0  0  0  0  0  0  0  0  0  0  0
  -38.3690   58.5038   62.9506 O   0  0  0  0  0  0  0  0  0  0  0  0
  -42.0242   52.4788   53.9189 C   0  0  0  0  0  0  0  0  0  0  0  0
  -35.4212   59.8922   65.6081 O   0  0  0  0  0  0  0  0  0  0  0  0
  -42.0919   53.2267   55.2385 C   0  0  0  0  0  0  0  0  0  0  0  0
  -33.2899   61.1805   65.4982 O   0  5  0  0  0  0  0  0  0  0  0  0
  -41.3421   54.5515   55.2272 C   0  0  0  0  0  0  0  0  0  0  0  0
  -34.3697   60.6479   67.7438 O   0  0  0  0  0  0  0  0  0  0  0  0
  -39.8663   54.4114   54.9147 C   0  0  0  0  0  0  0  0  0  0  0  0
  -33.2397   58.8709   66.4173 O   0  0  0  0  0  0  0  0  0  0  0  0
  -39.1208   55.7321   54.9214 C   0  0  0  0  0  0  0  0  0  0  0  0
  -36.2062   57.0374   68.6802 O   0  0  0  0  0  0  0  0  0  0  0  0
  -39.6539   56.7494   53.9189 C   0  0  0  0  0  0  0  0  0  0  0  0
  -35.6889   56.1935   66.0253 O   0  0  0  0  0  0  0  0  0  0  0  0
  -38.8967   58.0608   53.9164 C   0  0  0  0  0  0  0  0  0  0  0  0
  -38.2720   59.8520   65.2990 O   0  0  0  0  0  0  0  0  0  0  0  0
  -38.9005   58.7796   55.2504 C   0  0  0  0  0  0  0  0  0  0  0  0
  -37.1354   58.2625   66.4133 O   0  0  0  0  0  0  0  0  0  0  0  0
  -38.2595   57.9672   56.3537 C   0  0  0  0  0  0  0  0  0  0  0  0
  -38.2703   58.6608   57.6902 C   0  0  0  0  0  0  0  0  0  0  0  0
  -37.5468   59.9851   57.6732 C   0  0  0  0  0  0  0  0  0  0  0  0
  -37.5406   60.6788   59.0203 C   0  0  0  0  0  0  0  0  0  0  0  0
  -38.9293   60.9656   59.5449 C   0  0  0  0  0  0  0  0  0  0  0  0
  -39.7789   59.7306   59.7584 C   0  0  0  0  0  0  0  0  0  0  0  0
  -39.1768   58.7699   60.7698 C   0  0  0  0  0  0  0  0  0  0  0  0
  -39.0024   59.3540   62.1421 C   0  0  0  0  0  0  0  0  0  0  0  0
  -37.0720   58.9080   63.4380 C   0  0  0  0  0  0  0  0  0  0  0  0
  -37.3490   60.1700   64.2050 C   0  0  2  0  0  0  0  0  0  0  0  0
  -36.0840   60.8130   64.7130 C   0  0  0  0  0  0  0  0  0  0  0  0
  -33.8095   57.6705   65.8565 C   0  0  0  0  0  0  0  0  0  0  0  0
  -35.1162   57.3915   66.5577 C   0  0  2  0  0  0  0  0  0  0  0  0
  -34.9512   57.2701   68.0537 C   0  0  0  0  0  0  0  0  0  0  0  0
  -37.7394   59.3002   66.4062 C   0  0  0  0  0  0  0  0  0  0  0  0
  -37.9745   60.1431   67.6212 C   0  0  0  0  0  0  0  0  0  0  0  0
  -36.8474   59.9862   68.6369 C   0  0  0  0  0  0  0  0  0  0  0  0
  -37.0390   60.8067   69.9019 C   0  0  0  0  0  0  0  0  0  0  0  0
  -35.9000   60.6572   70.9039 C   0  0  0  0  0  0  0  0  0  0  0  0
  -36.0898   61.4594   72.1779 C   0  0  0  0  0  0  0  0  0  0  0  0
  -34.9450   61.3323   73.1869 C   0  0  0  0  0  0  0  0  0  0  0  0
  -33.5781   61.8016   72.6840 C   0  0  0  0  0  0  0  0  0  0  0  0
  -32.5065   61.6312   73.7187 C   0  0  0  0  0  0  0  0  0  0  0  0
  -31.2281   61.3948   73.4968 C   0  0  0  0  0  0  0  0  0  0  0  0
  -30.5771   61.2483   72.1577 C   0  0  0  0  0  0  0  0  0  0  0  0
  -29.9190   59.8835   71.9764 C   0  0  0  0  0  0  0  0  0  0  0  0
  -30.8907   58.7205   72.0743 C   0  0  0  0  0  0  0  0  0  0  0  0
  -30.2331   57.3611   71.9108 C   0  0  0  0  0  0  0  0  0  0  0  0
  -31.1918   56.1845   71.9888 C   0  0  0  0  0  0  0  0  0  0  0  0
  -31.9469   56.1049   73.3068 C   0  0  0  0  0  0  0  0  0  0  0  0
  -32.8144   57.3127   73.6006 C   0  0  0  0  0  0  0  0  0  0  0  0
  -33.5317   57.2070   74.9174 C   0  0  0  0  0  0  0  0  0  0  0  0
  -44.7395   50.3851   54.1303 H   0  0  0  0  0  0  0  0  0  0  0  0
  -44.6772   51.9737   53.4055 H   0  0  0  0  0  0  0  0  0  0  0  0
  -44.3975   51.7840   55.1198 H   0  0  0  0  0  0  0  0  0  0  0  0
  -42.6496   50.7100   52.9348 H   0  0  0  0  0  0  0  0  0  0  0  0
  -42.3800   50.5457   54.6753 H   0  0  0  0  0  0  0  0  0  0  0  0
  -42.4328   53.1095   53.1572 H   0  0  0  0  0  0  0  0  0  0  0  0
  -40.9934   52.2397   53.7601 H   0  0  0  0  0  0  0  0  0  0  0  0
  -41.6703   52.6059   56.0012 H   0  0  0  0  0  0  0  0  0  0  0  0
  -43.1223   53.4508   55.4197 H   0  0  0  0  0  0  0  0  0  0  0  0
  -41.4420   55.0048   56.1912 H   0  0  0  0  0  0  0  0  0  0  0  0
  -41.7718   55.1482   54.4499 H   0  0  0  0  0  0  0  0  0  0  0  0
  -34.8636   61.4827   67.7318 H   0  0  0  0  0  0  0  0  0  0  0  0
  -39.7654   53.9699   53.9452 H   0  0  0  0  0  0  0  0  0  0  0  0
  -39.4372   53.8027   55.6831 H   0  0  0  0  0  0  0  0  0  0  0  0
  -38.0935   55.5400   54.6920 H   0  0  0  0  0  0  0  0  0  0  0  0
  -39.2527   56.1575   55.8943 H   0  0  0  0  0  0  0  0  0  0  0  0
  -36.0800   56.9623   69.6390 H   0  0  0  0  0  0  0  0  0  0  0  0
  -40.6777   56.9515   54.1557 H   0  0  0  0  0  0  0  0  0  0  0  0
  -39.5353   56.3195   52.9463 H   0  0  0  0  0  0  0  0  0  0  0  0
  -35.7902   56.2827   65.0647 H   0  0  0  0  0  0  0  0  0  0  0  0
  -39.3417   58.7044   53.1866 H   0  0  0  0  0  0  0  0  0  0  0  0
  -37.8763   57.8277   53.6943 H   0  0  0  0  0  0  0  0  0  0  0  0
  -39.9137   58.9884   55.5237 H   0  0  0  0  0  0  0  0  0  0  0  0
  -38.3284   59.6765   55.1356 H   0  0  0  0  0  0  0  0  0  0  0  0
  -37.2435   57.7690   56.0826 H   0  0  0  0  0  0  0  0  0  0  0  0
  -38.8323   57.0696   56.4588 H   0  0  0  0  0  0  0  0  0  0  0  0
  -37.7985   58.0238   58.4088 H   0  0  0  0  0  0  0  0  0  0  0  0
  -39.2919   58.8575   57.9404 H   0  0  0  0  0  0  0  0  0  0  0  0
  -38.0265   60.6257   56.9629 H   0  0  0  0  0  0  0  0  0  0  0  0
  -36.5281   59.7878   57.4122 H   0  0  0  0  0  0  0  0  0  0  0  0
  -37.0146   61.6056   58.9240 H   0  0  0  0  0  0  0  0  0  0  0  0
  -37.0657   60.0198   59.7168 H   0  0  0  0  0  0  0  0  0  0  0  0
  -39.4290   61.5996   58.8427 H   0  0  0  0  0  0  0  0  0  0  0  0
  -38.8072   61.4245   60.5038 H   0  0  0  0  0  0  0  0  0  0  0  0
  -39.8832   59.2214   58.8231 H   0  0  0  0  0  0  0  0  0  0  0  0
  -40.7244   60.0523   60.1425 H   0  0  0  0  0  0  0  0  0  0  0  0
  -38.2168   58.4625   60.4109 H   0  0  0  0  0  0  0  0  0  0  0  0
  -39.8626   57.9543   60.8666 H   0  0  0  0  0  0  0  0  0  0  0  0
  -36.4020   59.0962   62.6252 H   0  0  0  0  0  0  0  0  0  0  0  0
  -36.6048   58.1555   64.0382 H   0  0  0  0  0  0  0  0  0  0  0  0
  -37.7985   60.8886   63.5519 H   0  0  0  0  0  0  0  0  0  0  0  0
  -35.4401   61.0403   63.8892 H   0  0  0  0  0  0  0  0  0  0  0  0
  -36.3193   61.7188   65.2317 H   0  0  0  0  0  0  0  0  0  0  0  0
  -33.1386   56.8498   66.0021 H   0  0  0  0  0  0  0  0  0  0  0  0
  -33.9750   57.7975   64.8070 H   0  0  0  0  0  0  0  0  0  0  0  0
  -35.7677   58.2222   66.3834 H   0  0  0  0  0  0  0  0  0  0  0  0
  -34.2941   56.4537   68.2695 H   0  0  0  0  0  0  0  0  0  0  0  0
  -34.5430   58.1846   68.4302 H   0  0  0  0  0  0  0  0  0  0  0  0
  -38.8965   59.8473   68.0766 H   0  0  0  0  0  0  0  0  0  0  0  0
  -38.0119   61.1682   67.3167 H   0  0  0  0  0  0  0  0  0  0  0  0
  -35.9319   60.2902   68.1737 H   0  0  0  0  0  0  0  0  0  0  0  0
  -36.8368   58.9579   68.9325 H   0  0  0  0  0  0  0  0  0  0  0  0
  -37.9475   60.4945   70.3732 H   0  0  0  0  0  0  0  0  0  0  0  0
  -37.0658   61.8352   69.6080 H   0  0  0  0  0  0  0  0  0  0  0  0
  -34.9943   60.9805   70.4346 H   0  0  0  0  0  0  0  0  0  0  0  0
  -35.8712   59.6262   71.1886 H   0  0  0  0  0  0  0  0  0  0  0  0
  -36.9902   61.1267   72.6508 H   0  0  0  0  0  0  0  0  0  0  0  0
  -36.1248   62.4883   71.8864 H   0  0  0  0  0  0  0  0  0  0  0  0
  -34.8601   60.3020   73.4632 H   0  0  0  0  0  0  0  0  0  0  0  0
  -35.1971   61.9747   74.0046 H   0  0  0  0  0  0  0  0  0  0  0  0
  -33.6437   62.8371   72.4227 H   0  0  0  0  0  0  0  0  0  0  0  0
  -33.3158   61.2029   71.8369 H   0  0  0  0  0  0  0  0  0  0  0  0
  -32.7992   61.7066   74.7055 H   0  0  0  0  0  0  0  0  0  0  0  0
  -30.6194   61.3022   74.3249 H   0  0  0  0  0  0  0  0  0  0  0  0
  -29.8293   62.0066   72.0545 H   0  0  0  0  0  0  0  0  0  0  0  0
  -31.3389   61.3444   71.4126 H   0  0  0  0  0  0  0  0  0  0  0  0
  -29.1726   59.7650   72.7338 H   0  0  0  0  0  0  0  0  0  0  0  0
  -29.5055   59.8639   70.9898 H   0  0  0  0  0  0  0  0  0  0  0  0
  -31.6300   58.8326   71.3090 H   0  0  0  0  0  0  0  0  0  0  0  0
  -31.3134   58.7476   73.0569 H   0  0  0  0  0  0  0  0  0  0  0  0
  -29.5019   57.2483   72.6837 H   0  0  0  0  0  0  0  0  0  0  0  0
  -29.8093   57.3440   70.9285 H   0  0  0  0  0  0  0  0  0  0  0  0
  -30.6311   55.2817   71.8644 H   0  0  0  0  0  0  0  0  0  0  0  0
  -31.9196   56.3191   71.2161 H   0  0  0  0  0  0  0  0  0  0  0  0
  -31.2325   56.0048   74.0971 H   0  0  0  0  0  0  0  0  0  0  0  0
  -32.6051   55.2645   73.2335 H   0  0  0  0  0  0  0  0  0  0  0  0
  -33.5417   57.4091   72.8217 H   0  0  0  0  0  0  0  0  0  0  0  0
  -32.1719   58.1668   73.6509 H   0  0  0  0  0  0  0  0  0  0  0  0
  -34.1850   56.3597   74.9007 H   0  0  0  0  0  0  0  0  0  0  0  0
  -34.1041   58.0955   75.0841 H   0  0  0  0  0  0  0  0  0  0  0  0
  -32.8165   57.0905   75.7047 H   0  0  0  0  0  0  0  0  0  0  0  0
  1  4  1  0  0  0  0
  1 54  1  0  0  0  0
  1 55  1  0  0  0  0
  1 56  1  0  0  0  0
  2 29  2  0  0  0  0
  3  7  1  0  0  0  0
  3  9  2  6  0  0  0
  3 11  1  0  0  0  0
  3 13  1  0  0  0  0
  4  6  1  0  0  0  0
  4 57  1  0  0  0  0
  4 58  1  0  0  0  0
  5 29  1  0  0  0  0
  5 30  1  0  0  0  0
  6  8  1  0  0  0  0
  6 59  1  0  0  0  0
  6 60  1  0  0  0  0
  7 32  1  0  0  0  0
  8 10  1  0  0  0  0
  8 61  1  0  0  0  0
  8 62  1  0  0  0  0
 10 12  1  0  0  0  0
 10 63  1  0  0  0  0
 10 64  1  0  0  0  0
 11 65  1  0  0  0  0
 12 14  1  0  0  0  0
 12 66  1  0  0  0  0
 12 67  1  0  0  0  0
 13 33  1  0  0  0  0
 14 16  1  0  0  0  0
 14 68  1  0  0  0  0
 14 69  1  0  0  0  0
 15 35  1  0  0  0  0
 15 70  1  0  0  0  0
 16 18  1  0  0  0  0
 16 71  1  0  0  0  0
 16 72  1  0  0  0  0
 17 34  1  0  0  0  0
 17 73  1  0  0  0  0
 18 20  1  0  0  0  0
 18 74  1  0  0  0  0
 18 75  1  0  0  0  0
 19 31  1  0  0  0  0
 19 36  1  0  0  0  0
 20 22  1  0  0  0  0
 20 76  1  0  0  0  0
 20 77  1  0  0  0  0
 21 36  2  0  0  0  0
 22 23  1  0  0  0  0
 22 78  1  0  0  0  0
 22 79  1  0  0  0  0
 23 24  1  0  0  0  0
 23 80  1  0  0  0  0
 23 81  1  0  0  0  0
 24 25  1  0  0  0  0
 24 82  1  0  0  0  0
 24 83  1  0  0  0  0
 25 26  1  0  0  0  0
 25 84  1  0  0  0  0
 25 85  1  0  0  0  0
 26 27  1  0  0  0  0
 26 86  1  0  0  0  0
 26 87  1  0  0  0  0
 27 28  1  0  0  0  0
 27 88  1  0  0  0  0
 27 89  1  0  0  0  0
 28 29  1  0  0  0  0
 28 90  1  0  0  0  0
 28 91  1  0  0  0  0
 30 31  1  0  0  0  0
 30 92  1  0  0  0  0
 30 93  1  0  0  0  0
 31 32  1  0  0  0  0
 31 94  1  6  0  0  0
 32 95  1  0  0  0  0
 32 96  1  0  0  0  0
 33 34  1  0  0  0  0
 33 97  1  0  0  0  0
 33 98  1  0  0  0  0
 34 35  1  0  0  0  0
 34 99  1  6  0  0  0
 35100  1  0  0  0  0
 35101  1  0  0  0  0
 36 37  1  0  0  0  0
 37 38  1  0  0  0  0
 37102  1  0  0  0  0
 37103  1  0  0  0  0
 38 39  1  0  0  0  0
 38104  1  0  0  0  0
 38105  1  0  0  0  0
 39 40  1  0  0  0  0
 39106  1  0  0  0  0
 39107  1  0  0  0  0
 40 41  1  0  0  0  0
 40108  1  0  0  0  0
 40109  1  0  0  0  0
 41 42  1  0  0  0  0
 41110  1  0  0  0  0
 41111  1  0  0  0  0
 42 43  1  0  0  0  0
 42112  1  0  0  0  0
 42113  1  0  0  0  0
 43 44  1  0  0  0  0
 43114  1  0  0  0  0
 43115  1  0  0  0  0
 44 45  2  0  0  0  0
 44116  1  0  0  0  0
 45 46  1  0  0  0  0
 45117  1  0  0  0  0
 46 47  1  0  0  0  0
 46118  1  0  0  0  0
 46119  1  0  0  0  0
 47 48  1  0  0  0  0
 47120  1  0  0  0  0
 47121  1  0  0  0  0
 48 49  1  0  0  0  0
 48122  1  0  0  0  0
 48123  1  0  0  0  0
 49 50  1  0  0  0  0
 49124  1  0  0  0  0
 49125  1  0  0  0  0
 50 51  1  0  0  0  0
 50126  1  0  0  0  0
 50127  1  0  0  0  0
 51 52  1  0  0  0  0
 51128  1  0  0  0  0
 51129  1  0  0  0  0
 52 53  1  0  0  0  0
 52130  1  0  0  0  0
 52131  1  0  0  0  0
 53132  1  0  0  0  0
 53133  1  0  0  0  0
 53134  1  0  0  0  0
M  CHG  1   9  -1
M  END
$$$$