/media/chris/experiments/cd1a-new-docking/inputs/ligands/7sh4_ligand.pdb
 OpenBabel07012320073D

134133  0  0  1  0  0  0  0  0999 V2000
  -29.9731   67.5978   68.4826 C   0  0  0  0  0  0  0  0  0  0  0  0
  -34.4565   59.2318   63.8622 O   0  0  0  0  0  0  0  0  0  0  0  0
  -35.3336   62.9877   66.0786 P   0  0  1  0  0  0  0  0  0  0  0  0
  -28.4722   67.7074   68.6280 C   0  0  0  0  0  0  0  0  0  0  0  0
  -36.1511   59.3213   62.4064 O   0  0  0  0  0  0  0  0  0  0  0  0
  -27.8057   66.3535   68.7827 C   0  0  0  0  0  0  0  0  0  0  0  0
  -36.4293   62.0282   65.4148 O   0  0  0  0  0  0  0  0  0  0  0  0
  -28.0075   65.4085   67.6117 C   0  0  0  0  0  0  0  0  0  0  0  0
  -34.0856   62.8690   65.2943 O   0  5  0  0  0  0  0  0  0  0  0  0
  -27.3424   64.0523   67.8015 C   0  0  0  0  0  0  0  0  0  0  0  0
  -35.9402   64.3294   66.2534 O   0  0  0  0  0  0  0  0  0  0  0  0
  -27.5289   63.1146   66.6263 C   0  0  0  0  0  0  0  0  0  0  0  0
  -35.0625   62.3801   67.5278 O   0  0  0  0  0  0  0  0  0  0  0  0
  -26.8789   61.7592   66.8277 C   0  0  0  0  0  0  0  0  0  0  0  0
  -32.2101   63.3904   70.4461 O   0  0  0  0  0  0  0  0  0  0  0  0
  -27.0443   60.8112   65.6454 C   0  0  0  0  0  0  0  0  0  0  0  0
  -34.0846   60.4566   69.3044 O   0  0  0  0  0  0  0  0  0  0  0  0
  -28.4876   60.5124   65.2979 C   0  0  0  0  0  0  0  0  0  0  0  0
  -38.2720   59.8520   65.2990 O   0  0  0  0  0  0  0  0  0  0  0  0
  -28.6585   59.5571   64.1341 C   0  0  0  0  0  0  0  0  0  0  0  0
  -39.9885   59.4115   63.9134 O   0  0  0  0  0  0  0  0  0  0  0  0
  -30.1107   59.2937   63.8027 C   0  0  0  0  0  0  0  0  0  0  0  0
  -30.2978   58.3327   62.6585 C   0  0  0  0  0  0  0  0  0  0  0  0
  -29.6575   58.8090   61.3776 C   0  0  0  0  0  0  0  0  0  0  0  0
  -30.1971   60.1424   60.9010 C   0  0  0  0  0  0  0  0  0  0  0  0
  -31.6866   60.1201   60.6430 C   0  0  0  0  0  0  0  0  0  0  0  0
  -32.5221   59.7866   61.8610 C   0  0  0  0  0  0  0  0  0  0  0  0
  -34.0115   59.7562   61.5623 C   0  0  0  0  0  0  0  0  0  0  0  0
  -34.8698   59.4444   62.7543 C   0  0  0  0  0  0  0  0  0  0  0  0
  -37.0720   58.9080   63.4380 C   0  0  0  0  0  0  0  0  0  0  0  0
  -37.3490   60.1700   64.2050 C   0  0  2  0  0  0  0  0  0  0  0  0
  -36.0840   60.8130   64.7130 C   0  0  0  0  0  0  0  0  0  0  0  0
  -33.7652   62.5269   68.1406 C   0  0  0  0  0  0  0  0  0  0  0  0
  -33.7951   61.8458   69.4868 C   0  0  2  0  0  0  0  0  0  0  0  0
  -32.4999   62.0131   70.2446 C   0  0  0  0  0  0  0  0  0  0  0  0
  -39.5790   59.7587   64.9875 C   0  0  0  0  0  0  0  0  0  0  0  0
  -40.4582   60.1211   66.1441 C   0  0  0  0  0  0  0  0  0  0  0  0
  -41.7796   59.3604   66.1015 C   0  0  0  0  0  0  0  0  0  0  0  0
  -41.6236   57.8499   66.1669 C   0  0  0  0  0  0  0  0  0  0  0  0
  -42.9477   57.0970   66.1066 C   0  0  0  0  0  0  0  0  0  0  0  0
  -43.7369   57.3376   64.8331 C   0  0  0  0  0  0  0  0  0  0  0  0
  -43.0184   56.9133   63.5491 C   0  0  0  0  0  0  0  0  0  0  0  0
  -43.7945   57.1651   62.2546 C   0  0  0  0  0  0  0  0  0  0  0  0
  -43.0365   56.7096   61.0438 C   0  0  0  0  0  0  0  0  0  0  0  0
  -41.8486   57.1300   60.6543 C   0  0  0  0  0  0  0  0  0  0  0  0
  -41.0045   58.1540   61.3451 C   0  0  0  0  0  0  0  0  0  0  0  0
  -40.1284   58.9385   60.3727 C   0  0  0  0  0  0  0  0  0  0  0  0
  -39.1722   58.0684   59.5759 C   0  0  0  0  0  0  0  0  0  0  0  0
  -39.8680   57.0337   58.7085 C   0  0  0  0  0  0  0  0  0  0  0  0
  -40.7974   57.6161   57.6566 C   0  0  0  0  0  0  0  0  0  0  0  0
  -40.0912   58.5214   56.6589 C   0  0  0  0  0  0  0  0  0  0  0  0
  -39.0041   57.8342   55.8565 C   0  0  0  0  0  0  0  0  0  0  0  0
  -38.3173   58.7622   54.8939 C   0  0  0  0  0  0  0  0  0  0  0  0
  -30.3935   68.5761   68.3770 H   0  0  0  0  0  0  0  0  0  0  0  0
  -30.3821   67.1257   69.3513 H   0  0  0  0  0  0  0  0  0  0  0  0
  -30.2058   67.0142   67.6165 H   0  0  0  0  0  0  0  0  0  0  0  0
  -28.2530   68.2990   69.4922 H   0  0  0  0  0  0  0  0  0  0  0  0
  -28.0902   68.1590   67.7364 H   0  0  0  0  0  0  0  0  0  0  0  0
  -28.2012   65.8859   69.6601 H   0  0  0  0  0  0  0  0  0  0  0  0
  -26.7538   66.5400   68.8422 H   0  0  0  0  0  0  0  0  0  0  0  0
  -27.5998   65.8653   66.7342 H   0  0  0  0  0  0  0  0  0  0  0  0
  -29.0597   65.2330   67.5277 H   0  0  0  0  0  0  0  0  0  0  0  0
  -27.7590   63.5903   68.6721 H   0  0  0  0  0  0  0  0  0  0  0  0
  -26.2916   64.2293   67.8976 H   0  0  0  0  0  0  0  0  0  0  0  0
  -36.1151   64.7210   65.3834 H   0  0  0  0  0  0  0  0  0  0  0  0
  -27.1011   63.5702   65.7578 H   0  0  0  0  0  0  0  0  0  0  0  0
  -28.5804   62.9478   66.5193 H   0  0  0  0  0  0  0  0  0  0  0  0
  -27.3161   61.3011   67.6902 H   0  0  0  0  0  0  0  0  0  0  0  0
  -25.8292   61.9328   66.9413 H   0  0  0  0  0  0  0  0  0  0  0  0
  -31.3761   63.4774   70.9336 H   0  0  0  0  0  0  0  0  0  0  0  0
  -26.5565   59.8887   65.8821 H   0  0  0  0  0  0  0  0  0  0  0  0
  -26.6133   61.2963   64.7947 H   0  0  0  0  0  0  0  0  0  0  0  0
  -34.9178   60.3612   68.8170 H   0  0  0  0  0  0  0  0  0  0  0  0
  -28.9714   61.4340   65.0500 H   0  0  0  0  0  0  0  0  0  0  0  0
  -28.9190   60.0365   66.1537 H   0  0  0  0  0  0  0  0  0  0  0  0
  -28.1901   58.6277   64.3826 H   0  0  0  0  0  0  0  0  0  0  0  0
  -28.2084   60.0103   63.2756 H   0  0  0  0  0  0  0  0  0  0  0  0
  -30.5737   60.2231   63.5443 H   0  0  0  0  0  0  0  0  0  0  0  0
  -30.5559   58.8467   64.6669 H   0  0  0  0  0  0  0  0  0  0  0  0
  -31.3464   58.2050   62.4886 H   0  0  0  0  0  0  0  0  0  0  0  0
  -29.8225   57.4137   62.9314 H   0  0  0  0  0  0  0  0  0  0  0  0
  -29.8352   58.0784   60.6163 H   0  0  0  0  0  0  0  0  0  0  0  0
  -28.6137   58.9398   61.5731 H   0  0  0  0  0  0  0  0  0  0  0  0
  -29.6978   60.4068   59.9924 H   0  0  0  0  0  0  0  0  0  0  0  0
  -30.0181   60.8557   61.6782 H   0  0  0  0  0  0  0  0  0  0  0  0
  -31.8857   59.3878   59.8887 H   0  0  0  0  0  0  0  0  0  0  0  0
  -31.9617   61.1096   60.3428 H   0  0  0  0  0  0  0  0  0  0  0  0
  -32.3393   60.5248   62.6136 H   0  0  0  0  0  0  0  0  0  0  0  0
  -32.2389   58.8080   62.1880 H   0  0  0  0  0  0  0  0  0  0  0  0
  -34.1893   59.0104   60.8159 H   0  0  0  0  0  0  0  0  0  0  0  0
  -34.2809   60.7392   61.2368 H   0  0  0  0  0  0  0  0  0  0  0  0
  -36.6274   58.1683   64.0706 H   0  0  0  0  0  0  0  0  0  0  0  0
  -37.9610   58.4631   63.0423 H   0  0  0  0  0  0  0  0  0  0  0  0
  -37.7985   60.8886   63.5519 H   0  0  0  0  0  0  0  0  0  0  0  0
  -35.5824   60.1428   65.3795 H   0  0  0  0  0  0  0  0  0  0  0  0
  -35.4356   61.0386   63.8923 H   0  0  0  0  0  0  0  0  0  0  0  0
  -33.5401   63.5654   68.2658 H   0  0  0  0  0  0  0  0  0  0  0  0
  -33.0135   62.0843   67.5210 H   0  0  0  0  0  0  0  0  0  0  0  0
  -34.5606   62.3092   70.0736 H   0  0  0  0  0  0  0  0  0  0  0  0
  -32.5841   61.5291   71.1952 H   0  0  0  0  0  0  0  0  0  0  0  0
  -31.7082   61.5748   69.6737 H   0  0  0  0  0  0  0  0  0  0  0  0
  -40.6604   61.1713   66.1115 H   0  0  0  0  0  0  0  0  0  0  0  0
  -39.9489   59.8592   67.0479 H   0  0  0  0  0  0  0  0  0  0  0  0
  -42.2816   59.6080   65.1896 H   0  0  0  0  0  0  0  0  0  0  0  0
  -42.3342   59.6529   66.9685 H   0  0  0  0  0  0  0  0  0  0  0  0
  -41.1336   57.5998   67.0846 H   0  0  0  0  0  0  0  0  0  0  0  0
  -41.0557   57.5555   65.3092 H   0  0  0  0  0  0  0  0  0  0  0  0
  -43.5478   57.4044   66.9375 H   0  0  0  0  0  0  0  0  0  0  0  0
  -42.7121   56.0536   66.1324 H   0  0  0  0  0  0  0  0  0  0  0  0
  -43.9511   58.3838   64.7657 H   0  0  0  0  0  0  0  0  0  0  0  0
  -44.6170   56.7331   64.9025 H   0  0  0  0  0  0  0  0  0  0  0  0
  -42.8152   55.8648   63.6145 H   0  0  0  0  0  0  0  0  0  0  0  0
  -42.1368   57.5166   63.4889 H   0  0  0  0  0  0  0  0  0  0  0  0
  -43.9872   58.2139   62.1665 H   0  0  0  0  0  0  0  0  0  0  0  0
  -44.7051   56.6053   62.3026 H   0  0  0  0  0  0  0  0  0  0  0  0
  -43.4907   55.9941   60.4550 H   0  0  0  0  0  0  0  0  0  0  0  0
  -41.4652   56.7132   59.7916 H   0  0  0  0  0  0  0  0  0  0  0  0
  -40.3735   57.6583   62.0528 H   0  0  0  0  0  0  0  0  0  0  0  0
  -41.6620   58.8488   61.8247 H   0  0  0  0  0  0  0  0  0  0  0  0
  -39.5542   59.6475   60.9317 H   0  0  0  0  0  0  0  0  0  0  0  0
  -40.7840   59.4083   59.6697 H   0  0  0  0  0  0  0  0  0  0  0  0
  -38.5292   57.5573   60.2616 H   0  0  0  0  0  0  0  0  0  0  0  0
  -38.6332   58.7173   58.9176 H   0  0  0  0  0  0  0  0  0  0  0  0
  -40.4430   56.3952   59.3461 H   0  0  0  0  0  0  0  0  0  0  0  0
  -39.0978   56.5124   58.1793 H   0  0  0  0  0  0  0  0  0  0  0  0
  -41.5561   58.1849   58.1524 H   0  0  0  0  0  0  0  0  0  0  0  0
  -41.2029   56.7942   57.1044 H   0  0  0  0  0  0  0  0  0  0  0  0
  -39.6483   59.3330   57.1975 H   0  0  0  0  0  0  0  0  0  0  0  0
  -40.8328   58.8439   55.9583 H   0  0  0  0  0  0  0  0  0  0  0  0
  -39.4436   57.0310   55.3028 H   0  0  0  0  0  0  0  0  0  0  0  0
  -38.2667   57.4825   56.5474 H   0  0  0  0  0  0  0  0  0  0  0  0
  -39.0293   59.1333   54.1866 H   0  0  0  0  0  0  0  0  0  0  0  0
  -37.5445   58.2322   54.3774 H   0  0  0  0  0  0  0  0  0  0  0  0
  -37.8891   59.5817   55.4324 H   0  0  0  0  0  0  0  0  0  0  0  0
  1  4  1  0  0  0  0
  1 54  1  0  0  0  0
  1 55  1  0  0  0  0
  1 56  1  0  0  0  0
  2 29  2  0  0  0  0
  3  7  1  0  0  0  0
  3  9  2  6  0  0  0
  3 11  1  0  0  0  0
  3 13  1  0  0  0  0
  4  6  1  0  0  0  0
  4 57  1  0  0  0  0
  4 58  1  0  0  0  0
  5 29  1  0  0  0  0
  5 30  1  0  0  0  0
  6  8  1  0  0  0  0
  6 59  1  0  0  0  0
  6 60  1  0  0  0  0
  7 32  1  0  0  0  0
  8 10  1  0  0  0  0
  8 61  1  0  0  0  0
  8 62  1  0  0  0  0
 10 12  1  0  0  0  0
 10 63  1  0  0  0  0
 10 64  1  0  0  0  0
 11 65  1  0  0  0  0
 12 14  1  0  0  0  0
 12 66  1  0  0  0  0
 12 67  1  0  0  0  0
 13 33  1  0  0  0  0
 14 16  1  0  0  0  0
 14 68  1  0  0  0  0
 14 69  1  0  0  0  0
 15 35  1  0  0  0  0
 15 70  1  0  0  0  0
 16 18  1  0  0  0  0
 16 71  1  0  0  0  0
 16 72  1  0  0  0  0
 17 34  1  0  0  0  0
 17 73  1  0  0  0  0
 18 20  1  0  0  0  0
 18 74  1  0  0  0  0
 18 75  1  0  0  0  0
 19 31  1  0  0  0  0
 19 36  1  0  0  0  0
 20 22  1  0  0  0  0
 20 76  1  0  0  0  0
 20 77  1  0  0  0  0
 21 36  2  0  0  0  0
 22 23  1  0  0  0  0
 22 78  1  0  0  0  0
 22 79  1  0  0  0  0
 23 24  1  0  0  0  0
 23 80  1  0  0  0  0
 23 81  1  0  0  0  0
 24 25  1  0  0  0  0
 24 82  1  0  0  0  0
 24 83  1  0  0  0  0
 25 26  1  0  0  0  0
 25 84  1  0  0  0  0
 25 85  1  0  0  0  0
 26 27  1  0  0  0  0
 26 86  1  0  0  0  0
 26 87  1  0  0  0  0
 27 28  1  0  0  0  0
 27 88  1  0  0  0  0
 27 89  1  0  0  0  0
 28 29  1  0  0  0  0
 28 90  1  0  0  0  0
 28 91  1  0  0  0  0
 30 31  1  0  0  0  0
 30 92  1  0  0  0  0
 30 93  1  0  0  0  0
 31 32  1  0  0  0  0
 31 94  1  6  0  0  0
 32 95  1  0  0  0  0
 32 96  1  0  0  0  0
 33 34  1  0  0  0  0
 33 97  1  0  0  0  0
 33 98  1  0  0  0  0
 34 35  1  0  0  0  0
 34 99  1  1  0  0  0
 35100  1  0  0  0  0
 35101  1  0  0  0  0
 36 37  1  0  0  0  0
 37 38  1  0  0  0  0
 37102  1  0  0  0  0
 37103  1  0  0  0  0
 38 39  1  0  0  0  0
 38104  1  0  0  0  0
 38105  1  0  0  0  0
 39 40  1  0  0  0  0
 39106  1  0  0  0  0
 39107  1  0  0  0  0
 40 41  1  0  0  0  0
 40108  1  0  0  0  0
 40109  1  0  0  0  0
 41 42  1  0  0  0  0
 41110  1  0  0  0  0
 41111  1  0  0  0  0
 42 43  1  0  0  0  0
 42112  1  0  0  0  0
 42113  1  0  0  0  0
 43 44  1  0  0  0  0
 43114  1  0  0  0  0
 43115  1  0  0  0  0
 44 45  2  0  0  0  0
 44116  1  0  0  0  0
 45 46  1  0  0  0  0
 45117  1  0  0  0  0
 46 47  1  0  0  0  0
 46118  1  0  0  0  0
 46119  1  0  0  0  0
 47 48  1  0  0  0  0
 47120  1  0  0  0  0
 47121  1  0  0  0  0
 48 49  1  0  0  0  0
 48122  1  0  0  0  0
 48123  1  0  0  0  0
 49 50  1  0  0  0  0
 49124  1  0  0  0  0
 49125  1  0  0  0  0
 50 51  1  0  0  0  0
 50126  1  0  0  0  0
 50127  1  0  0  0  0
 51 52  1  0  0  0  0
 51128  1  0  0  0  0
 51129  1  0  0  0  0
 52 53  1  0  0  0  0
 52130  1  0  0  0  0
 52131  1  0  0  0  0
 53132  1  0  0  0  0
 53133  1  0  0  0  0
 53134  1  0  0  0  0
M  CHG  1   9  -1
M  END
$$$$