/media/chris/experiments/cd1a-new-docking/inputs/ligands/7sh4_ligand.pdb
 OpenBabel07012320073D

134133  0  0  1  0  0  0  0  0999 V2000
  -28.4951   65.7695   53.6053 C   0  0  0  0  0  0  0  0  0  0  0  0
  -34.6751   59.9610   63.9592 O   0  0  0  0  0  0  0  0  0  0  0  0
  -34.0491   60.2433   66.3537 P   0  0  1  0  0  0  0  0  0  0  0  0
  -29.3183   65.8979   54.8669 C   0  0  0  0  0  0  0  0  0  0  0  0
  -36.1511   59.3213   62.4064 O   0  0  0  0  0  0  0  0  0  0  0  0
  -28.4605   66.1320   56.0959 C   0  0  0  0  0  0  0  0  0  0  0  0
  -35.4212   59.8922   65.6081 O   0  0  0  0  0  0  0  0  0  0  0  0
  -29.2338   66.2521   57.3970 C   0  0  0  0  0  0  0  0  0  0  0  0
  -34.2885   60.1710   67.8112 O   0  5  0  0  0  0  0  0  0  0  0  0
  -28.3495   66.5035   58.6104 C   0  0  0  0  0  0  0  0  0  0  0  0
  -32.9766   59.4052   65.7656 O   0  0  0  0  0  0  0  0  0  0  0  0
  -29.1187   66.6066   59.9115 C   0  0  0  0  0  0  0  0  0  0  0  0
  -33.7429   61.7632   65.9812 O   0  0  0  0  0  0  0  0  0  0  0  0
  -28.2348   66.8739   61.1146 C   0  0  0  0  0  0  0  0  0  0  0  0
  -33.8976   64.3863   68.1816 O   0  0  0  0  0  0  0  0  0  0  0  0
  -27.1737   65.8057   61.3531 C   0  0  0  0  0  0  0  0  0  0  0  0
  -31.4256   63.0127   68.5090 O   0  0  0  0  0  0  0  0  0  0  0  0
  -27.7405   64.4193   61.5762 C   0  0  0  0  0  0  0  0  0  0  0  0
  -38.2720   59.8520   65.2990 O   0  0  0  0  0  0  0  0  0  0  0  0
  -28.6783   64.3181   62.7622 C   0  0  0  0  0  0  0  0  0  0  0  0
  -40.2610   59.8884   64.2489 O   0  0  0  0  0  0  0  0  0  0  0  0
  -29.2126   62.9178   62.9667 C   0  0  0  0  0  0  0  0  0  0  0  0
  -30.1598   62.8038   64.1318 C   0  0  0  0  0  0  0  0  0  0  0  0
  -31.3859   63.6709   63.9820 C   0  0  0  0  0  0  0  0  0  0  0  0
  -32.2165   63.3239   62.7631 C   0  0  0  0  0  0  0  0  0  0  0  0
  -32.7391   61.9054   62.7872 C   0  0  0  0  0  0  0  0  0  0  0  0
  -33.5591   61.5259   61.5722 C   0  0  0  0  0  0  0  0  0  0  0  0
  -34.0822   60.1009   61.6372 C   0  0  0  0  0  0  0  0  0  0  0  0
  -34.9861   59.8321   62.8059 C   0  0  0  0  0  0  0  0  0  0  0  0
  -37.0720   58.9080   63.4380 C   0  0  0  0  0  0  0  0  0  0  0  0
  -37.3490   60.1700   64.2050 C   0  0  2  0  0  0  0  0  0  0  0  0
  -36.0840   60.8130   64.7130 C   0  0  0  0  0  0  0  0  0  0  0  0
  -32.5522   62.4034   66.4837 C   0  0  0  0  0  0  0  0  0  0  0  0
  -32.5926   62.3666   67.9917 C   0  0  2  0  0  0  0  0  0  0  0  0
  -33.8373   63.0142   68.5494 C   0  0  0  0  0  0  0  0  0  0  0  0
  -39.4672   59.3329   64.9581 C   0  0  0  0  0  0  0  0  0  0  0  0
  -39.6789   57.9753   65.5532 C   0  0  0  0  0  0  0  0  0  0  0  0
  -39.1801   56.8736   64.6235 C   0  0  0  0  0  0  0  0  0  0  0  0
  -39.3839   55.4691   65.1673 C   0  0  0  0  0  0  0  0  0  0  0  0
  -38.8674   54.3752   64.2397 C   0  0  0  0  0  0  0  0  0  0  0  0
  -37.3783   54.4562   63.9595 C   0  0  0  0  0  0  0  0  0  0  0  0
  -36.4892   54.3310   65.2000 C   0  0  0  0  0  0  0  0  0  0  0  0
  -36.7231   55.3908   66.2789 C   0  0  0  0  0  0  0  0  0  0  0  0
  -35.8067   55.2140   67.4523 C   0  0  0  0  0  0  0  0  0  0  0  0
  -36.0423   54.4976   68.5343 C   0  0  0  0  0  0  0  0  0  0  0  0
  -37.2800   53.7060   68.8167 C   0  0  0  0  0  0  0  0  0  0  0  0
  -38.3025   53.8015   67.6880 C   0  0  0  0  0  0  0  0  0  0  0  0
  -39.5780   53.0213   67.9535 C   0  0  0  0  0  0  0  0  0  0  0  0
  -39.3500   51.5352   68.1699 C   0  0  0  0  0  0  0  0  0  0  0  0
  -38.6883   50.8230   67.0019 C   0  0  0  0  0  0  0  0  0  0  0  0
  -38.4866   49.3337   67.2363 C   0  0  0  0  0  0  0  0  0  0  0  0
  -37.8123   48.6090   66.0884 C   0  0  0  0  0  0  0  0  0  0  0  0
  -36.4358   49.1373   65.7956 C   0  0  0  0  0  0  0  0  0  0  0  0
  -29.1445   65.6062   52.7707 H   0  0  0  0  0  0  0  0  0  0  0  0
  -27.8224   64.9430   53.7008 H   0  0  0  0  0  0  0  0  0  0  0  0
  -27.9358   66.6686   53.4513 H   0  0  0  0  0  0  0  0  0  0  0  0
  -29.8779   64.9965   55.0052 H   0  0  0  0  0  0  0  0  0  0  0  0
  -29.9615   66.7451   54.7519 H   0  0  0  0  0  0  0  0  0  0  0  0
  -27.9104   67.0382   55.9505 H   0  0  0  0  0  0  0  0  0  0  0  0
  -27.8342   65.2701   56.1955 H   0  0  0  0  0  0  0  0  0  0  0  0
  -29.7739   65.3420   57.5547 H   0  0  0  0  0  0  0  0  0  0  0  0
  -29.8816   67.0982   57.3000 H   0  0  0  0  0  0  0  0  0  0  0  0
  -27.8187   67.4199   58.4579 H   0  0  0  0  0  0  0  0  0  0  0  0
  -27.6936   65.6628   58.6998 H   0  0  0  0  0  0  0  0  0  0  0  0
  -33.1408   58.4733   65.9789 H   0  0  0  0  0  0  0  0  0  0  0  0
  -29.6397   65.6858   60.0713 H   0  0  0  0  0  0  0  0  0  0  0  0
  -29.7858   67.4381   59.8188 H   0  0  0  0  0  0  0  0  0  0  0  0
  -28.8569   66.9304   61.9833 H   0  0  0  0  0  0  0  0  0  0  0  0
  -27.7152   67.7889   60.9201 H   0  0  0  0  0  0  0  0  0  0  0  0
  -34.7025   64.7843   68.5485 H   0  0  0  0  0  0  0  0  0  0  0  0
  -26.6063   66.0812   62.2174 H   0  0  0  0  0  0  0  0  0  0  0  0
  -26.5749   65.7585   60.4676 H   0  0  0  0  0  0  0  0  0  0  0  0
  -30.6329   62.5890   68.1444 H   0  0  0  0  0  0  0  0  0  0  0  0
  -26.9253   63.7443   61.7338 H   0  0  0  0  0  0  0  0  0  0  0  0
  -28.3151   64.1771   60.7067 H   0  0  0  0  0  0  0  0  0  0  0  0
  -29.5041   64.9796   62.6028 H   0  0  0  0  0  0  0  0  0  0  0  0
  -28.1221   64.5826   63.6372 H   0  0  0  0  0  0  0  0  0  0  0  0
  -28.3855   62.2605   63.1364 H   0  0  0  0  0  0  0  0  0  0  0  0
  -29.7619   62.6574   62.0862 H   0  0  0  0  0  0  0  0  0  0  0  0
  -29.6423   63.0958   65.0217 H   0  0  0  0  0  0  0  0  0  0  0  0
  -30.4903   61.7872   64.1773 H   0  0  0  0  0  0  0  0  0  0  0  0
  -31.0733   64.6910   63.9015 H   0  0  0  0  0  0  0  0  0  0  0  0
  -31.9995   63.5056   64.8428 H   0  0  0  0  0  0  0  0  0  0  0  0
  -31.6098   63.4487   61.8906 H   0  0  0  0  0  0  0  0  0  0  0  0
  -33.0642   63.9767   62.7578 H   0  0  0  0  0  0  0  0  0  0  0  0
  -33.3526   61.7884   63.6560 H   0  0  0  0  0  0  0  0  0  0  0  0
  -31.8839   61.2624   62.7942 H   0  0  0  0  0  0  0  0  0  0  0  0
  -32.9459   61.6256   60.7010 H   0  0  0  0  0  0  0  0  0  0  0  0
  -34.4060   62.1789   61.5380 H   0  0  0  0  0  0  0  0  0  0  0  0
  -33.2447   59.4381   61.7009 H   0  0  0  0  0  0  0  0  0  0  0  0
  -34.6658   59.9460   60.7539 H   0  0  0  0  0  0  0  0  0  0  0  0
  -36.6274   58.1683   64.0706 H   0  0  0  0  0  0  0  0  0  0  0  0
  -37.9610   58.4631   63.0423 H   0  0  0  0  0  0  0  0  0  0  0  0
  -37.7985   60.8886   63.5519 H   0  0  0  0  0  0  0  0  0  0  0  0
  -35.4401   61.0403   63.8892 H   0  0  0  0  0  0  0  0  0  0  0  0
  -36.3193   61.7188   65.2317 H   0  0  0  0  0  0  0  0  0  0  0  0
  -32.5185   63.4188   66.1477 H   0  0  0  0  0  0  0  0  0  0  0  0
  -31.6819   61.8938   66.1264 H   0  0  0  0  0  0  0  0  0  0  0  0
  -32.6130   61.3409   68.2958 H   0  0  0  0  0  0  0  0  0  0  0  0
  -34.6986   62.5092   68.1647 H   0  0  0  0  0  0  0  0  0  0  0  0
  -33.8124   62.9448   69.6169 H   0  0  0  0  0  0  0  0  0  0  0  0
  -40.7243   57.8329   65.7315 H   0  0  0  0  0  0  0  0  0  0  0  0
  -39.1256   57.9193   66.4673 H   0  0  0  0  0  0  0  0  0  0  0  0
  -38.1335   57.0217   64.4569 H   0  0  0  0  0  0  0  0  0  0  0  0
  -39.7536   56.9441   63.7230 H   0  0  0  0  0  0  0  0  0  0  0  0
  -40.4314   55.3148   65.3219 H   0  0  0  0  0  0  0  0  0  0  0  0
  -38.8241   55.4001   66.0765 H   0  0  0  0  0  0  0  0  0  0  0  0
  -39.3895   54.4491   63.3087 H   0  0  0  0  0  0  0  0  0  0  0  0
  -39.0389   53.4425   64.7353 H   0  0  0  0  0  0  0  0  0  0  0  0
  -37.1763   55.4001   63.4979 H   0  0  0  0  0  0  0  0  0  0  0  0
  -37.1418   53.6230   63.3312 H   0  0  0  0  0  0  0  0  0  0  0  0
  -35.4691   54.3994   64.8845 H   0  0  0  0  0  0  0  0  0  0  0  0
  -36.7359   53.3914   65.6485 H   0  0  0  0  0  0  0  0  0  0  0  0
  -37.7354   55.3200   66.6181 H   0  0  0  0  0  0  0  0  0  0  0  0
  -36.5239   56.3494   65.8472 H   0  0  0  0  0  0  0  0  0  0  0  0
  -34.8989   55.7028   67.4090 H   0  0  0  0  0  0  0  0  0  0  0  0
  -35.3029   54.4815   69.2542 H   0  0  0  0  0  0  0  0  0  0  0  0
  -37.7261   54.0753   69.7165 H   0  0  0  0  0  0  0  0  0  0  0  0
  -36.9954   52.6790   68.9127 H   0  0  0  0  0  0  0  0  0  0  0  0
  -37.8545   53.4226   66.7932 H   0  0  0  0  0  0  0  0  0  0  0  0
  -38.5779   54.8318   67.6014 H   0  0  0  0  0  0  0  0  0  0  0  0
  -40.2303   53.1444   67.1143 H   0  0  0  0  0  0  0  0  0  0  0  0
  -39.9992   53.4084   68.8577 H   0  0  0  0  0  0  0  0  0  0  0  0
  -40.2989   51.0740   68.3486 H   0  0  0  0  0  0  0  0  0  0  0  0
  -38.6797   51.4476   68.9993 H   0  0  0  0  0  0  0  0  0  0  0  0
  -37.7323   51.2714   66.8291 H   0  0  0  0  0  0  0  0  0  0  0  0
  -39.3413   50.9240   66.1602 H   0  0  0  0  0  0  0  0  0  0  0  0
  -39.4452   48.8868   67.3983 H   0  0  0  0  0  0  0  0  0  0  0  0
  -37.8374   49.2410   68.0818 H   0  0  0  0  0  0  0  0  0  0  0  0
  -38.4154   48.7211   65.2117 H   0  0  0  0  0  0  0  0  0  0  0  0
  -37.7103   47.5819   66.3707 H   0  0  0  0  0  0  0  0  0  0  0  0
  -36.5021   50.1661   65.5091 H   0  0  0  0  0  0  0  0  0  0  0  0
  -35.9991   48.5726   64.9985 H   0  0  0  0  0  0  0  0  0  0  0  0
  -35.8264   49.0493   66.6707 H   0  0  0  0  0  0  0  0  0  0  0  0
  1  4  1  0  0  0  0
  1 54  1  0  0  0  0
  1 55  1  0  0  0  0
  1 56  1  0  0  0  0
  2 29  2  0  0  0  0
  3  7  1  0  0  0  0
  3  9  2  1  0  0  0
  3 11  1  0  0  0  0
  3 13  1  0  0  0  0
  4  6  1  0  0  0  0
  4 57  1  0  0  0  0
  4 58  1  0  0  0  0
  5 29  1  0  0  0  0
  5 30  1  0  0  0  0
  6  8  1  0  0  0  0
  6 59  1  0  0  0  0
  6 60  1  0  0  0  0
  7 32  1  0  0  0  0
  8 10  1  0  0  0  0
  8 61  1  0  0  0  0
  8 62  1  0  0  0  0
 10 12  1  0  0  0  0
 10 63  1  0  0  0  0
 10 64  1  0  0  0  0
 11 65  1  0  0  0  0
 12 14  1  0  0  0  0
 12 66  1  0  0  0  0
 12 67  1  0  0  0  0
 13 33  1  0  0  0  0
 14 16  1  0  0  0  0
 14 68  1  0  0  0  0
 14 69  1  0  0  0  0
 15 35  1  0  0  0  0
 15 70  1  0  0  0  0
 16 18  1  0  0  0  0
 16 71  1  0  0  0  0
 16 72  1  0  0  0  0
 17 34  1  0  0  0  0
 17 73  1  0  0  0  0
 18 20  1  0  0  0  0
 18 74  1  0  0  0  0
 18 75  1  0  0  0  0
 19 31  1  0  0  0  0
 19 36  1  0  0  0  0
 20 22  1  0  0  0  0
 20 76  1  0  0  0  0
 20 77  1  0  0  0  0
 21 36  2  0  0  0  0
 22 23  1  0  0  0  0
 22 78  1  0  0  0  0
 22 79  1  0  0  0  0
 23 24  1  0  0  0  0
 23 80  1  0  0  0  0
 23 81  1  0  0  0  0
 24 25  1  0  0  0  0
 24 82  1  0  0  0  0
 24 83  1  0  0  0  0
 25 26  1  0  0  0  0
 25 84  1  0  0  0  0
 25 85  1  0  0  0  0
 26 27  1  0  0  0  0
 26 86  1  0  0  0  0
 26 87  1  0  0  0  0
 27 28  1  0  0  0  0
 27 88  1  0  0  0  0
 27 89  1  0  0  0  0
 28 29  1  0  0  0  0
 28 90  1  0  0  0  0
 28 91  1  0  0  0  0
 30 31  1  0  0  0  0
 30 92  1  0  0  0  0
 30 93  1  0  0  0  0
 31 32  1  0  0  0  0
 31 94  1  6  0  0  0
 32 95  1  0  0  0  0
 32 96  1  0  0  0  0
 33 34  1  0  0  0  0
 33 97  1  0  0  0  0
 33 98  1  0  0  0  0
 34 35  1  0  0  0  0
 34 99  1  1  0  0  0
 35100  1  0  0  0  0
 35101  1  0  0  0  0
 36 37  1  0  0  0  0
 37 38  1  0  0  0  0
 37102  1  0  0  0  0
 37103  1  0  0  0  0
 38 39  1  0  0  0  0
 38104  1  0  0  0  0
 38105  1  0  0  0  0
 39 40  1  0  0  0  0
 39106  1  0  0  0  0
 39107  1  0  0  0  0
 40 41  1  0  0  0  0
 40108  1  0  0  0  0
 40109  1  0  0  0  0
 41 42  1  0  0  0  0
 41110  1  0  0  0  0
 41111  1  0  0  0  0
 42 43  1  0  0  0  0
 42112  1  0  0  0  0
 42113  1  0  0  0  0
 43 44  1  0  0  0  0
 43114  1  0  0  0  0
 43115  1  0  0  0  0
 44 45  2  0  0  0  0
 44116  1  0  0  0  0
 45 46  1  0  0  0  0
 45117  1  0  0  0  0
 46 47  1  0  0  0  0
 46118  1  0  0  0  0
 46119  1  0  0  0  0
 47 48  1  0  0  0  0
 47120  1  0  0  0  0
 47121  1  0  0  0  0
 48 49  1  0  0  0  0
 48122  1  0  0  0  0
 48123  1  0  0  0  0
 49 50  1  0  0  0  0
 49124  1  0  0  0  0
 49125  1  0  0  0  0
 50 51  1  0  0  0  0
 50126  1  0  0  0  0
 50127  1  0  0  0  0
 51 52  1  0  0  0  0
 51128  1  0  0  0  0
 51129  1  0  0  0  0
 52 53  1  0  0  0  0
 52130  1  0  0  0  0
 52131  1  0  0  0  0
 53132  1  0  0  0  0
 53133  1  0  0  0  0
 53134  1  0  0  0  0
M  CHG  1   9  -1
M  END
$$$$