/media/chris/experiments/cd1a-new-docking/inputs/ligands/7sh4_ligand.pdb
 OpenBabel07012320073D

134133  0  0  1  0  0  0  0  0999 V2000
  -25.2999   65.2258   59.4615 C   0  0  0  0  0  0  0  0  0  0  0  0
  -38.9960   60.3074   61.7875 O   0  0  0  0  0  0  0  0  0  0  0  0
  -34.0491   60.2433   66.3537 P   0  0  1  0  0  0  0  0  0  0  0  0
  -26.7914   65.4422   59.3419 C   0  0  0  0  0  0  0  0  0  0  0  0
  -38.3690   58.5038   62.9506 O   0  0  0  0  0  0  0  0  0  0  0  0
  -27.5512   64.9093   60.5418 C   0  0  0  0  0  0  0  0  0  0  0  0
  -35.4212   59.8922   65.6081 O   0  0  0  0  0  0  0  0  0  0  0  0
  -29.0576   65.0843   60.4688 C   0  0  0  0  0  0  0  0  0  0  0  0
  -34.2885   60.1710   67.8112 O   0  5  0  0  0  0  0  0  0  0  0  0
  -29.7924   64.5561   61.6930 C   0  0  0  0  0  0  0  0  0  0  0  0
  -32.9766   59.4052   65.7656 O   0  0  0  0  0  0  0  0  0  0  0  0
  -29.5666   63.0797   61.9468 C   0  0  0  0  0  0  0  0  0  0  0  0
  -33.7429   61.7632   65.9812 O   0  0  0  0  0  0  0  0  0  0  0  0
  -30.3143   62.5551   63.1575 C   0  0  0  0  0  0  0  0  0  0  0  0
  -33.8527   62.9332   69.9689 O   0  0  0  0  0  0  0  0  0  0  0  0
  -30.0826   61.0740   63.4347 C   0  0  0  0  0  0  0  0  0  0  0  0
  -31.4256   63.0127   68.5090 O   0  0  0  0  0  0  0  0  0  0  0  0
  -30.4891   60.1668   62.2924 C   0  0  0  0  0  0  0  0  0  0  0  0
  -38.2720   59.8520   65.2990 O   0  0  0  0  0  0  0  0  0  0  0  0
  -31.9508   60.2740   61.9076 C   0  0  0  0  0  0  0  0  0  0  0  0
  -39.8075   59.1219   63.8261 O   0  0  0  0  0  0  0  0  0  0  0  0
  -32.3269   59.3433   60.7760 C   0  0  0  0  0  0  0  0  0  0  0  0
  -33.7731   59.4498   60.3701 C   0  0  0  0  0  0  0  0  0  0  0  0
  -34.1429   58.5057   59.2523 C   0  0  0  0  0  0  0  0  0  0  0  0
  -35.5933   58.6216   58.8291 C   0  0  0  0  0  0  0  0  0  0  0  0
  -36.5627   58.3402   59.9546 C   0  0  0  0  0  0  0  0  0  0  0  0
  -38.0203   58.4324   59.5553 C   0  0  0  0  0  0  0  0  0  0  0  0
  -38.9658   58.1609   60.7132 C   0  0  0  0  0  0  0  0  0  0  0  0
  -38.8234   59.1206   61.8593 C   0  0  0  0  0  0  0  0  0  0  0  0
  -37.0720   58.9080   63.4380 C   0  0  0  0  0  0  0  0  0  0  0  0
  -37.3490   60.1700   64.2050 C   0  0  2  0  0  0  0  0  0  0  0  0
  -36.0840   60.8130   64.7130 C   0  0  0  0  0  0  0  0  0  0  0  0
  -32.5522   62.4034   66.4837 C   0  0  0  0  0  0  0  0  0  0  0  0
  -32.5926   62.3666   67.9917 C   0  0  2  0  0  0  0  0  0  0  0  0
  -33.8373   63.0142   68.5494 C   0  0  0  0  0  0  0  0  0  0  0  0
  -39.4672   59.3329   64.9581 C   0  0  0  0  0  0  0  0  0  0  0  0
  -40.3113   59.0340   66.1581 C   0  0  0  0  0  0  0  0  0  0  0  0
  -39.4546   58.6893   67.3722 C   0  0  0  0  0  0  0  0  0  0  0  0
  -40.2578   58.3591   68.6196 C   0  0  0  0  0  0  0  0  0  0  0  0
  -39.3939   58.0325   69.8323 C   0  0  0  0  0  0  0  0  0  0  0  0
  -38.4649   56.8503   69.6277 C   0  0  0  0  0  0  0  0  0  0  0  0
  -37.6029   56.4999   70.8439 C   0  0  0  0  0  0  0  0  0  0  0  0
  -36.6798   57.6184   71.3322 C   0  0  0  0  0  0  0  0  0  0  0  0
  -35.7164   58.0592   70.2713 C   0  0  0  0  0  0  0  0  0  0  0  0
  -34.5100   57.5734   70.0521 C   0  0  0  0  0  0  0  0  0  0  0  0
  -33.8486   56.4731   70.8204 C   0  0  0  0  0  0  0  0  0  0  0  0
  -34.7333   55.9305   71.9390 C   0  0  0  0  0  0  0  0  0  0  0  0
  -34.0818   54.8229   72.7483 C   0  0  0  0  0  0  0  0  0  0  0  0
  -33.6878   53.6127   71.9193 C   0  0  0  0  0  0  0  0  0  0  0  0
  -34.8431   52.9432   71.1937 C   0  0  0  0  0  0  0  0  0  0  0  0
  -34.4256   51.7247   70.3847 C   0  0  0  0  0  0  0  0  0  0  0  0
  -35.5623   51.0531   69.6400 C   0  0  0  0  0  0  0  0  0  0  0  0
  -36.2220   51.9636   68.6423 C   0  0  0  0  0  0  0  0  0  0  0  0
  -24.8119   65.6177   58.5937 H   0  0  0  0  0  0  0  0  0  0  0  0
  -25.0968   64.1784   59.5425 H   0  0  0  0  0  0  0  0  0  0  0  0
  -24.9353   65.7282   60.3331 H   0  0  0  0  0  0  0  0  0  0  0  0
  -27.1418   64.9419   58.4634 H   0  0  0  0  0  0  0  0  0  0  0  0
  -26.9647   66.4967   59.2881 H   0  0  0  0  0  0  0  0  0  0  0  0
  -27.1984   65.4201   61.4133 H   0  0  0  0  0  0  0  0  0  0  0  0
  -27.3709   63.8550   60.5693 H   0  0  0  0  0  0  0  0  0  0  0  0
  -29.4175   64.5622   59.6069 H   0  0  0  0  0  0  0  0  0  0  0  0
  -29.2493   66.1357   60.4171 H   0  0  0  0  0  0  0  0  0  0  0  0
  -30.8408   64.7189   61.5544 H   0  0  0  0  0  0  0  0  0  0  0  0
  -29.4071   65.0825   62.5411 H   0  0  0  0  0  0  0  0  0  0  0  0
  -33.1408   58.4733   65.9789 H   0  0  0  0  0  0  0  0  0  0  0  0
  -28.5198   62.9179   62.0983 H   0  0  0  0  0  0  0  0  0  0  0  0
  -29.9381   62.5522   61.0932 H   0  0  0  0  0  0  0  0  0  0  0  0
  -31.3614   62.7080   62.9988 H   0  0  0  0  0  0  0  0  0  0  0  0
  -29.9440   63.0909   64.0065 H   0  0  0  0  0  0  0  0  0  0  0  0
  -34.6583   63.3537   70.3080 H   0  0  0  0  0  0  0  0  0  0  0  0
  -30.6487   60.8004   64.3005 H   0  0  0  0  0  0  0  0  0  0  0  0
  -29.0298   60.9447   63.5756 H   0  0  0  0  0  0  0  0  0  0  0  0
  -30.6329   62.5890   68.1444 H   0  0  0  0  0  0  0  0  0  0  0  0
  -30.2904   59.1553   62.5795 H   0  0  0  0  0  0  0  0  0  0  0  0
  -29.9218   60.4728   61.4383 H   0  0  0  0  0  0  0  0  0  0  0  0
  -32.1519   61.2802   61.6042 H   0  0  0  0  0  0  0  0  0  0  0  0
  -32.5310   59.9946   62.7620 H   0  0  0  0  0  0  0  0  0  0  0  0
  -32.1348   58.3374   61.0861 H   0  0  0  0  0  0  0  0  0  0  0  0
  -31.7389   59.6239   59.9273 H   0  0  0  0  0  0  0  0  0  0  0  0
  -33.9636   60.4520   60.0471 H   0  0  0  0  0  0  0  0  0  0  0  0
  -34.3648   59.1853   61.2215 H   0  0  0  0  0  0  0  0  0  0  0  0
  -33.9633   57.5032   59.5804 H   0  0  0  0  0  0  0  0  0  0  0  0
  -33.5426   58.7648   58.4053 H   0  0  0  0  0  0  0  0  0  0  0  0
  -35.7749   57.9221   58.0401 H   0  0  0  0  0  0  0  0  0  0  0  0
  -35.7544   59.6312   58.5136 H   0  0  0  0  0  0  0  0  0  0  0  0
  -36.3835   59.0480   60.7368 H   0  0  0  0  0  0  0  0  0  0  0  0
  -36.3915   57.3299   60.2628 H   0  0  0  0  0  0  0  0  0  0  0  0
  -38.2096   57.7154   58.7839 H   0  0  0  0  0  0  0  0  0  0  0  0
  -38.2001   59.4325   59.2201 H   0  0  0  0  0  0  0  0  0  0  0  0
  -38.7763   57.1726   61.0770 H   0  0  0  0  0  0  0  0  0  0  0  0
  -39.9595   58.2784   60.3342 H   0  0  0  0  0  0  0  0  0  0  0  0
  -36.4020   59.0962   62.6252 H   0  0  0  0  0  0  0  0  0  0  0  0
  -36.6048   58.1555   64.0382 H   0  0  0  0  0  0  0  0  0  0  0  0
  -37.7985   60.8886   63.5519 H   0  0  0  0  0  0  0  0  0  0  0  0
  -35.4401   61.0403   63.8892 H   0  0  0  0  0  0  0  0  0  0  0  0
  -36.3193   61.7188   65.2317 H   0  0  0  0  0  0  0  0  0  0  0  0
  -32.5185   63.4188   66.1477 H   0  0  0  0  0  0  0  0  0  0  0  0
  -31.6819   61.8938   66.1264 H   0  0  0  0  0  0  0  0  0  0  0  0
  -32.6130   61.3409   68.2958 H   0  0  0  0  0  0  0  0  0  0  0  0
  -33.8597   64.0429   68.2560 H   0  0  0  0  0  0  0  0  0  0  0  0
  -34.6939   62.5002   68.1661 H   0  0  0  0  0  0  0  0  0  0  0  0
  -40.9498   58.2046   65.9363 H   0  0  0  0  0  0  0  0  0  0  0  0
  -40.8865   59.9061   66.3897 H   0  0  0  0  0  0  0  0  0  0  0  0
  -38.8250   59.5269   67.5889 H   0  0  0  0  0  0  0  0  0  0  0  0
  -38.8979   57.8110   67.1200 H   0  0  0  0  0  0  0  0  0  0  0  0
  -40.8782   57.5133   68.4084 H   0  0  0  0  0  0  0  0  0  0  0  0
  -40.8279   59.2305   68.8657 H   0  0  0  0  0  0  0  0  0  0  0  0
  -40.0400   57.8140   70.6567 H   0  0  0  0  0  0  0  0  0  0  0  0
  -38.7739   58.8864   70.0099 H   0  0  0  0  0  0  0  0  0  0  0  0
  -37.8127   57.0758   68.8100 H   0  0  0  0  0  0  0  0  0  0  0  0
  -39.0898   56.0014   69.4438 H   0  0  0  0  0  0  0  0  0  0  0  0
  -36.9952   55.6575   70.5872 H   0  0  0  0  0  0  0  0  0  0  0  0
  -38.2849   56.3067   71.6454 H   0  0  0  0  0  0  0  0  0  0  0  0
  -36.1252   57.2641   72.1759 H   0  0  0  0  0  0  0  0  0  0  0  0
  -37.2895   58.4582   71.5927 H   0  0  0  0  0  0  0  0  0  0  0  0
  -36.0292   58.8207   69.6490 H   0  0  0  0  0  0  0  0  0  0  0  0
  -33.9715   57.9916   69.2775 H   0  0  0  0  0  0  0  0  0  0  0  0
  -32.9439   56.8499   71.2500 H   0  0  0  0  0  0  0  0  0  0  0  0
  -33.6551   55.6707   70.1395 H   0  0  0  0  0  0  0  0  0  0  0  0
  -35.6320   55.5468   71.5031 H   0  0  0  0  0  0  0  0  0  0  0  0
  -34.9202   56.7414   72.6116 H   0  0  0  0  0  0  0  0  0  0  0  0
  -34.7709   54.5057   73.5030 H   0  0  0  0  0  0  0  0  0  0  0  0
  -33.1810   55.2258   73.1619 H   0  0  0  0  0  0  0  0  0  0  0  0
  -33.2401   52.8921   72.5714 H   0  0  0  0  0  0  0  0  0  0  0  0
  -33.0176   53.9662   71.1638 H   0  0  0  0  0  0  0  0  0  0  0  0
  -35.2846   53.6562   70.5291 H   0  0  0  0  0  0  0  0  0  0  0  0
  -35.5309   52.6052   71.9405 H   0  0  0  0  0  0  0  0  0  0  0  0
  -33.9941   51.0097   71.0537 H   0  0  0  0  0  0  0  0  0  0  0  0
  -33.7346   52.0696   69.6442 H   0  0  0  0  0  0  0  0  0  0  0  0
  -36.2963   50.7353   70.3507 H   0  0  0  0  0  0  0  0  0  0  0  0
  -35.1501   50.2268   69.0994 H   0  0  0  0  0  0  0  0  0  0  0  0
  -36.6461   52.8035   69.1518 H   0  0  0  0  0  0  0  0  0  0  0  0
  -36.9948   51.4302   68.1292 H   0  0  0  0  0  0  0  0  0  0  0  0
  -35.4947   52.3051   67.9357 H   0  0  0  0  0  0  0  0  0  0  0  0
  1  4  1  0  0  0  0
  1 54  1  0  0  0  0
  1 55  1  0  0  0  0
  1 56  1  0  0  0  0
  2 29  2  0  0  0  0
  3  7  1  0  0  0  0
  3  9  2  1  0  0  0
  3 11  1  0  0  0  0
  3 13  1  0  0  0  0
  4  6  1  0  0  0  0
  4 57  1  0  0  0  0
  4 58  1  0  0  0  0
  5 29  1  0  0  0  0
  5 30  1  0  0  0  0
  6  8  1  0  0  0  0
  6 59  1  0  0  0  0
  6 60  1  0  0  0  0
  7 32  1  0  0  0  0
  8 10  1  0  0  0  0
  8 61  1  0  0  0  0
  8 62  1  0  0  0  0
 10 12  1  0  0  0  0
 10 63  1  0  0  0  0
 10 64  1  0  0  0  0
 11 65  1  0  0  0  0
 12 14  1  0  0  0  0
 12 66  1  0  0  0  0
 12 67  1  0  0  0  0
 13 33  1  0  0  0  0
 14 16  1  0  0  0  0
 14 68  1  0  0  0  0
 14 69  1  0  0  0  0
 15 35  1  0  0  0  0
 15 70  1  0  0  0  0
 16 18  1  0  0  0  0
 16 71  1  0  0  0  0
 16 72  1  0  0  0  0
 17 34  1  0  0  0  0
 17 73  1  0  0  0  0
 18 20  1  0  0  0  0
 18 74  1  0  0  0  0
 18 75  1  0  0  0  0
 19 31  1  0  0  0  0
 19 36  1  0  0  0  0
 20 22  1  0  0  0  0
 20 76  1  0  0  0  0
 20 77  1  0  0  0  0
 21 36  2  0  0  0  0
 22 23  1  0  0  0  0
 22 78  1  0  0  0  0
 22 79  1  0  0  0  0
 23 24  1  0  0  0  0
 23 80  1  0  0  0  0
 23 81  1  0  0  0  0
 24 25  1  0  0  0  0
 24 82  1  0  0  0  0
 24 83  1  0  0  0  0
 25 26  1  0  0  0  0
 25 84  1  0  0  0  0
 25 85  1  0  0  0  0
 26 27  1  0  0  0  0
 26 86  1  0  0  0  0
 26 87  1  0  0  0  0
 27 28  1  0  0  0  0
 27 88  1  0  0  0  0
 27 89  1  0  0  0  0
 28 29  1  0  0  0  0
 28 90  1  0  0  0  0
 28 91  1  0  0  0  0
 30 31  1  0  0  0  0
 30 92  1  0  0  0  0
 30 93  1  0  0  0  0
 31 32  1  0  0  0  0
 31 94  1  6  0  0  0
 32 95  1  0  0  0  0
 32 96  1  0  0  0  0
 33 34  1  0  0  0  0
 33 97  1  0  0  0  0
 33 98  1  0  0  0  0
 34 35  1  0  0  0  0
 34 99  1  1  0  0  0
 35100  1  0  0  0  0
 35101  1  0  0  0  0
 36 37  1  0  0  0  0
 37 38  1  0  0  0  0
 37102  1  0  0  0  0
 37103  1  0  0  0  0
 38 39  1  0  0  0  0
 38104  1  0  0  0  0
 38105  1  0  0  0  0
 39 40  1  0  0  0  0
 39106  1  0  0  0  0
 39107  1  0  0  0  0
 40 41  1  0  0  0  0
 40108  1  0  0  0  0
 40109  1  0  0  0  0
 41 42  1  0  0  0  0
 41110  1  0  0  0  0
 41111  1  0  0  0  0
 42 43  1  0  0  0  0
 42112  1  0  0  0  0
 42113  1  0  0  0  0
 43 44  1  0  0  0  0
 43114  1  0  0  0  0
 43115  1  0  0  0  0
 44 45  2  0  0  0  0
 44116  1  0  0  0  0
 45 46  1  0  0  0  0
 45117  1  0  0  0  0
 46 47  1  0  0  0  0
 46118  1  0  0  0  0
 46119  1  0  0  0  0
 47 48  1  0  0  0  0
 47120  1  0  0  0  0
 47121  1  0  0  0  0
 48 49  1  0  0  0  0
 48122  1  0  0  0  0
 48123  1  0  0  0  0
 49 50  1  0  0  0  0
 49124  1  0  0  0  0
 49125  1  0  0  0  0
 50 51  1  0  0  0  0
 50126  1  0  0  0  0
 50127  1  0  0  0  0
 51 52  1  0  0  0  0
 51128  1  0  0  0  0
 51129  1  0  0  0  0
 52 53  1  0  0  0  0
 52130  1  0  0  0  0
 52131  1  0  0  0  0
 53132  1  0  0  0  0
 53133  1  0  0  0  0
 53134  1  0  0  0  0
M  CHG  1   9  -1
M  END
$$$$