/media/chris/experiments/cd1a-new-docking/inputs/ligands/7sh4_ligand.pdb
 OpenBabel07012320073D

134133  0  0  1  0  0  0  0  0999 V2000
  -40.3253   66.5929   58.7917 C   0  0  0  0  0  0  0  0  0  0  0  0
  -38.2654   59.0910   60.7957 O   0  0  0  0  0  0  0  0  0  0  0  0
  -34.0491   60.2433   66.3537 P   0  0  1  0  0  0  0  0  0  0  0  0
  -38.9132   66.0922   58.5892 C   0  0  0  0  0  0  0  0  0  0  0  0
  -38.3690   58.5038   62.9506 O   0  0  0  0  0  0  0  0  0  0  0  0
  -38.5164   65.0491   59.6166 C   0  0  0  0  0  0  0  0  0  0  0  0
  -35.4212   59.8922   65.6081 O   0  0  0  0  0  0  0  0  0  0  0  0
  -39.3707   63.7940   59.6103 C   0  0  0  0  0  0  0  0  0  0  0  0
  -33.0346   59.2516   65.9368 O   0  5  0  0  0  0  0  0  0  0  0  0
  -38.9608   62.7727   60.6622 C   0  0  0  0  0  0  0  0  0  0  0  0
  -33.7655   61.6836   66.1443 O   0  0  0  0  0  0  0  0  0  0  0  0
  -39.0585   63.2909   62.0824 C   0  0  0  0  0  0  0  0  0  0  0  0
  -34.3431   60.0224   67.9054 O   0  0  0  0  0  0  0  0  0  0  0  0
  -40.4632   63.7042   62.4778 C   0  0  0  0  0  0  0  0  0  0  0  0
  -35.9668   58.2580   67.1938 O   0  0  0  0  0  0  0  0  0  0  0  0
  -41.0551   64.8030   61.6024 C   0  0  0  0  0  0  0  0  0  0  0  0
  -33.0297   56.7260   68.7593 O   0  0  0  0  0  0  0  0  0  0  0  0
  -42.4510   65.2250   62.0103 C   0  0  0  0  0  0  0  0  0  0  0  0
  -38.2720   59.8520   65.2990 O   0  0  0  0  0  0  0  0  0  0  0  0
  -43.4695   64.1034   61.9812 C   0  0  0  0  0  0  0  0  0  0  0  0
  -36.7587   60.5453   66.8121 O   0  0  0  0  0  0  0  0  0  0  0  0
  -43.6118   63.4788   60.6109 C   0  0  0  0  0  0  0  0  0  0  0  0
  -44.6329   62.3731   60.5611 C   0  0  0  0  0  0  0  0  0  0  0  0
  -44.3201   61.2387   61.5060 C   0  0  0  0  0  0  0  0  0  0  0  0
  -42.9795   60.5874   61.2329 C   0  0  0  0  0  0  0  0  0  0  0  0
  -42.6766   59.4404   62.1702 C   0  0  0  0  0  0  0  0  0  0  0  0
  -41.3347   58.7814   61.9305 C   0  0  0  0  0  0  0  0  0  0  0  0
  -40.1689   59.7397   62.1066 C   0  0  0  0  0  0  0  0  0  0  0  0
  -38.8234   59.1206   61.8593 C   0  0  0  0  0  0  0  0  0  0  0  0
  -37.0720   58.9080   63.4380 C   0  0  0  0  0  0  0  0  0  0  0  0
  -37.3490   60.1700   64.2050 C   0  0  2  0  0  0  0  0  0  0  0  0
  -36.0840   60.8130   64.7130 C   0  0  0  0  0  0  0  0  0  0  0  0
  -33.5776   59.0565   68.6543 C   0  0  0  0  0  0  0  0  0  0  0  0
  -33.7696   57.7013   68.0190 C   0  0  2  0  0  0  0  0  0  0  0  0
  -35.2241   57.3036   67.9416 C   0  0  0  0  0  0  0  0  0  0  0  0
  -37.8399   60.0926   66.5518 C   0  0  0  0  0  0  0  0  0  0  0  0
  -38.8741   59.7460   67.5776 C   0  0  0  0  0  0  0  0  0  0  0  0
  -38.3798   60.0389   68.9906 C   0  0  0  0  0  0  0  0  0  0  0  0
  -38.0393   61.5000   69.2340 C   0  0  0  0  0  0  0  0  0  0  0  0
  -37.5301   61.7810   70.6431 C   0  0  0  0  0  0  0  0  0  0  0  0
  -38.5112   61.4089   71.7392 C   0  0  0  0  0  0  0  0  0  0  0  0
  -38.0197   61.7015   73.1597 C   0  0  0  0  0  0  0  0  0  0  0  0
  -38.9911   61.3162   74.2775 C   0  0  0  0  0  0  0  0  0  0  0  0
  -40.3055   62.0267   74.1535 C   0  0  0  0  0  0  0  0  0  0  0  0
  -41.3696   61.6054   73.4979 C   0  0  0  0  0  0  0  0  0  0  0  0
  -41.4874   60.3219   72.7383 C   0  0  0  0  0  0  0  0  0  0  0  0
  -42.9126   59.7767   72.7337 C   0  0  0  0  0  0  0  0  0  0  0  0
  -43.0608   58.4644   71.9839 C   0  0  0  0  0  0  0  0  0  0  0  0
  -44.4826   57.9302   71.9647 C   0  0  0  0  0  0  0  0  0  0  0  0
  -44.6488   56.6085   71.2333 C   0  0  0  0  0  0  0  0  0  0  0  0
  -43.8352   55.4748   71.8388 C   0  0  0  0  0  0  0  0  0  0  0  0
  -44.1912   55.1526   73.2766 C   0  0  0  0  0  0  0  0  0  0  0  0
  -43.3567   54.0400   73.8469 C   0  0  0  0  0  0  0  0  0  0  0  0
  -40.5553   67.3236   58.0446 H   0  0  0  0  0  0  0  0  0  0  0  0
  -40.4111   67.0357   59.7620 H   0  0  0  0  0  0  0  0  0  0  0  0
  -41.0091   65.7737   58.7118 H   0  0  0  0  0  0  0  0  0  0  0  0
  -38.2408   66.9211   58.6637 H   0  0  0  0  0  0  0  0  0  0  0  0
  -38.8650   65.6338   57.6235 H   0  0  0  0  0  0  0  0  0  0  0  0
  -38.5856   65.4943   60.5871 H   0  0  0  0  0  0  0  0  0  0  0  0
  -37.5236   64.7397   59.3646 H   0  0  0  0  0  0  0  0  0  0  0  0
  -39.2929   63.3366   58.6462 H   0  0  0  0  0  0  0  0  0  0  0  0
  -40.3720   64.0947   59.8383 H   0  0  0  0  0  0  0  0  0  0  0  0
  -37.9473   62.4842   60.4765 H   0  0  0  0  0  0  0  0  0  0  0  0
  -39.6399   61.9497   60.5814 H   0  0  0  0  0  0  0  0  0  0  0  0
  -33.5830   61.8440   65.2052 H   0  0  0  0  0  0  0  0  0  0  0  0
  -38.4154   64.1407   62.1783 H   0  0  0  0  0  0  0  0  0  0  0  0
  -38.7706   62.4903   62.7312 H   0  0  0  0  0  0  0  0  0  0  0  0
  -40.4389   64.0554   63.4882 H   0  0  0  0  0  0  0  0  0  0  0  0
  -41.0855   62.8423   62.3564 H   0  0  0  0  0  0  0  0  0  0  0  0
  -36.8970   57.9857   67.1553 H   0  0  0  0  0  0  0  0  0  0  0  0
  -41.0915   64.4477   60.5938 H   0  0  0  0  0  0  0  0  0  0  0  0
  -40.4258   65.6614   61.7121 H   0  0  0  0  0  0  0  0  0  0  0  0
  -32.0978   56.9914   68.8026 H   0  0  0  0  0  0  0  0  0  0  0  0
  -42.7785   65.9938   61.3420 H   0  0  0  0  0  0  0  0  0  0  0  0
  -42.3885   65.5589   63.0250 H   0  0  0  0  0  0  0  0  0  0  0  0
  -44.4194   64.4958   62.2788 H   0  0  0  0  0  0  0  0  0  0  0  0
  -43.1291   63.3406   62.6500 H   0  0  0  0  0  0  0  0  0  0  0  0
  -42.6632   63.0779   60.3206 H   0  0  0  0  0  0  0  0  0  0  0  0
  -43.9461   64.2479   59.9463 H   0  0  0  0  0  0  0  0  0  0  0  0
  -44.6684   61.9865   59.5641 H   0  0  0  0  0  0  0  0  0  0  0  0
  -45.5713   62.7903   60.8614 H   0  0  0  0  0  0  0  0  0  0  0  0
  -45.0847   60.4962   61.4110 H   0  0  0  0  0  0  0  0  0  0  0  0
  -44.2792   61.6491   62.4933 H   0  0  0  0  0  0  0  0  0  0  0  0
  -42.2134   61.3265   61.3402 H   0  0  0  0  0  0  0  0  0  0  0  0
  -43.0144   60.1884   60.2406 H   0  0  0  0  0  0  0  0  0  0  0  0
  -43.4400   58.7000   62.0522 H   0  0  0  0  0  0  0  0  0  0  0  0
  -42.6461   59.8503   63.1581 H   0  0  0  0  0  0  0  0  0  0  0  0
  -41.3151   58.3989   60.9314 H   0  0  0  0  0  0  0  0  0  0  0  0
  -41.2240   58.0024   62.6557 H   0  0  0  0  0  0  0  0  0  0  0  0
  -40.1883   60.1118   63.1096 H   0  0  0  0  0  0  0  0  0  0  0  0
  -40.2918   60.5123   61.3766 H   0  0  0  0  0  0  0  0  0  0  0  0
  -36.4020   59.0962   62.6252 H   0  0  0  0  0  0  0  0  0  0  0  0
  -36.6048   58.1555   64.0382 H   0  0  0  0  0  0  0  0  0  0  0  0
  -37.7985   60.8886   63.5519 H   0  0  0  0  0  0  0  0  0  0  0  0
  -35.4401   61.0403   63.8892 H   0  0  0  0  0  0  0  0  0  0  0  0
  -36.3193   61.7188   65.2317 H   0  0  0  0  0  0  0  0  0  0  0  0
  -33.9192   59.0321   69.6681 H   0  0  0  0  0  0  0  0  0  0  0  0
  -32.5413   59.3227   68.6469 H   0  0  0  0  0  0  0  0  0  0  0  0
  -33.4082   57.7547   67.0133 H   0  0  0  0  0  0  0  0  0  0  0  0
  -35.3022   56.3477   67.4672 H   0  0  0  0  0  0  0  0  0  0  0  0
  -35.6219   57.2590   68.9339 H   0  0  0  0  0  0  0  0  0  0  0  0
  -39.1062   58.7044   67.4994 H   0  0  0  0  0  0  0  0  0  0  0  0
  -39.7422   60.3443   67.3948 H   0  0  0  0  0  0  0  0  0  0  0  0
  -37.5014   59.4543   69.1681 H   0  0  0  0  0  0  0  0  0  0  0  0
  -39.1798   59.7916   69.6568 H   0  0  0  0  0  0  0  0  0  0  0  0
  -38.9203   62.0847   69.0697 H   0  0  0  0  0  0  0  0  0  0  0  0
  -37.2500   61.7552   68.5581 H   0  0  0  0  0  0  0  0  0  0  0  0
  -37.3181   62.8268   70.7220 H   0  0  0  0  0  0  0  0  0  0  0  0
  -36.6614   61.1727   70.7854 H   0  0  0  0  0  0  0  0  0  0  0  0
  -38.7130   60.3608   71.6649 H   0  0  0  0  0  0  0  0  0  0  0  0
  -39.3798   62.0150   71.5877 H   0  0  0  0  0  0  0  0  0  0  0  0
  -37.8290   62.7517   73.2343 H   0  0  0  0  0  0  0  0  0  0  0  0
  -37.1481   61.0975   73.3026 H   0  0  0  0  0  0  0  0  0  0  0  0
  -38.5504   61.5681   75.2194 H   0  0  0  0  0  0  0  0  0  0  0  0
  -39.1770   60.2650   74.2042 H   0  0  0  0  0  0  0  0  0  0  0  0
  -40.3859   62.9387   74.6297 H   0  0  0  0  0  0  0  0  0  0  0  0
  -42.1992   62.2191   73.5101 H   0  0  0  0  0  0  0  0  0  0  0  0
  -40.8433   59.5958   73.1887 H   0  0  0  0  0  0  0  0  0  0  0  0
  -41.2097   60.5170   71.7235 H   0  0  0  0  0  0  0  0  0  0  0  0
  -43.5506   60.5025   72.2741 H   0  0  0  0  0  0  0  0  0  0  0  0
  -43.1786   59.5870   73.7526 H   0  0  0  0  0  0  0  0  0  0  0  0
  -42.4321   57.7355   72.4512 H   0  0  0  0  0  0  0  0  0  0  0  0
  -42.7829   58.6514   70.9677 H   0  0  0  0  0  0  0  0  0  0  0  0
  -45.1064   58.6570   71.4877 H   0  0  0  0  0  0  0  0  0  0  0  0
  -44.7542   57.7505   72.9840 H   0  0  0  0  0  0  0  0  0  0  0  0
  -44.3402   56.7422   70.2176 H   0  0  0  0  0  0  0  0  0  0  0  0
  -45.6798   56.3329   71.3107 H   0  0  0  0  0  0  0  0  0  0  0  0
  -42.8011   55.7474   71.8023 H   0  0  0  0  0  0  0  0  0  0  0  0
  -44.0540   54.5989   71.2645 H   0  0  0  0  0  0  0  0  0  0  0  0
  -45.2206   54.8636   73.3175 H   0  0  0  0  0  0  0  0  0  0  0  0
  -44.0021   56.0294   73.8600 H   0  0  0  0  0  0  0  0  0  0  0  0
  -43.5227   53.1451   73.2843 H   0  0  0  0  0  0  0  0  0  0  0  0
  -43.6313   53.8755   74.8679 H   0  0  0  0  0  0  0  0  0  0  0  0
  -42.3219   54.3074   73.7945 H   0  0  0  0  0  0  0  0  0  0  0  0
  1  4  1  0  0  0  0
  1 54  1  0  0  0  0
  1 55  1  0  0  0  0
  1 56  1  0  0  0  0
  2 29  2  0  0  0  0
  3  7  1  0  0  0  0
  3  9  2  6  0  0  0
  3 11  1  0  0  0  0
  3 13  1  0  0  0  0
  4  6  1  0  0  0  0
  4 57  1  0  0  0  0
  4 58  1  0  0  0  0
  5 29  1  0  0  0  0
  5 30  1  0  0  0  0
  6  8  1  0  0  0  0
  6 59  1  0  0  0  0
  6 60  1  0  0  0  0
  7 32  1  0  0  0  0
  8 10  1  0  0  0  0
  8 61  1  0  0  0  0
  8 62  1  0  0  0  0
 10 12  1  0  0  0  0
 10 63  1  0  0  0  0
 10 64  1  0  0  0  0
 11 65  1  0  0  0  0
 12 14  1  0  0  0  0
 12 66  1  0  0  0  0
 12 67  1  0  0  0  0
 13 33  1  0  0  0  0
 14 16  1  0  0  0  0
 14 68  1  0  0  0  0
 14 69  1  0  0  0  0
 15 35  1  0  0  0  0
 15 70  1  0  0  0  0
 16 18  1  0  0  0  0
 16 71  1  0  0  0  0
 16 72  1  0  0  0  0
 17 34  1  0  0  0  0
 17 73  1  0  0  0  0
 18 20  1  0  0  0  0
 18 74  1  0  0  0  0
 18 75  1  0  0  0  0
 19 31  1  0  0  0  0
 19 36  1  0  0  0  0
 20 22  1  0  0  0  0
 20 76  1  0  0  0  0
 20 77  1  0  0  0  0
 21 36  2  0  0  0  0
 22 23  1  0  0  0  0
 22 78  1  0  0  0  0
 22 79  1  0  0  0  0
 23 24  1  0  0  0  0
 23 80  1  0  0  0  0
 23 81  1  0  0  0  0
 24 25  1  0  0  0  0
 24 82  1  0  0  0  0
 24 83  1  0  0  0  0
 25 26  1  0  0  0  0
 25 84  1  0  0  0  0
 25 85  1  0  0  0  0
 26 27  1  0  0  0  0
 26 86  1  0  0  0  0
 26 87  1  0  0  0  0
 27 28  1  0  0  0  0
 27 88  1  0  0  0  0
 27 89  1  0  0  0  0
 28 29  1  0  0  0  0
 28 90  1  0  0  0  0
 28 91  1  0  0  0  0
 30 31  1  0  0  0  0
 30 92  1  0  0  0  0
 30 93  1  0  0  0  0
 31 32  1  0  0  0  0
 31 94  1  6  0  0  0
 32 95  1  0  0  0  0
 32 96  1  0  0  0  0
 33 34  1  0  0  0  0
 33 97  1  0  0  0  0
 33 98  1  0  0  0  0
 34 35  1  0  0  0  0
 34 99  1  6  0  0  0
 35100  1  0  0  0  0
 35101  1  0  0  0  0
 36 37  1  0  0  0  0
 37 38  1  0  0  0  0
 37102  1  0  0  0  0
 37103  1  0  0  0  0
 38 39  1  0  0  0  0
 38104  1  0  0  0  0
 38105  1  0  0  0  0
 39 40  1  0  0  0  0
 39106  1  0  0  0  0
 39107  1  0  0  0  0
 40 41  1  0  0  0  0
 40108  1  0  0  0  0
 40109  1  0  0  0  0
 41 42  1  0  0  0  0
 41110  1  0  0  0  0
 41111  1  0  0  0  0
 42 43  1  0  0  0  0
 42112  1  0  0  0  0
 42113  1  0  0  0  0
 43 44  1  0  0  0  0
 43114  1  0  0  0  0
 43115  1  0  0  0  0
 44 45  2  0  0  0  0
 44116  1  0  0  0  0
 45 46  1  0  0  0  0
 45117  1  0  0  0  0
 46 47  1  0  0  0  0
 46118  1  0  0  0  0
 46119  1  0  0  0  0
 47 48  1  0  0  0  0
 47120  1  0  0  0  0
 47121  1  0  0  0  0
 48 49  1  0  0  0  0
 48122  1  0  0  0  0
 48123  1  0  0  0  0
 49 50  1  0  0  0  0
 49124  1  0  0  0  0
 49125  1  0  0  0  0
 50 51  1  0  0  0  0
 50126  1  0  0  0  0
 50127  1  0  0  0  0
 51 52  1  0  0  0  0
 51128  1  0  0  0  0
 51129  1  0  0  0  0
 52 53  1  0  0  0  0
 52130  1  0  0  0  0
 52131  1  0  0  0  0
 53132  1  0  0  0  0
 53133  1  0  0  0  0
 53134  1  0  0  0  0
M  CHG  1   9  -1
M  END
$$$$