/media/chris/experiments/cd1a-new-docking/inputs/ligands/7sh4_ligand.pdb
 OpenBabel07012320073D

134133  0  0  1  0  0  0  0  0999 V2000
  -42.7729   63.0084   62.7115 C   0  0  0  0  0  0  0  0  0  0  0  0
  -38.2161   59.9780   61.2765 O   0  0  0  0  0  0  0  0  0  0  0  0
  -34.0491   60.2433   66.3537 P   0  0  1  0  0  0  0  0  0  0  0  0
  -42.7399   62.3082   61.3720 C   0  0  0  0  0  0  0  0  0  0  0  0
  -38.3690   58.5038   62.9506 O   0  0  0  0  0  0  0  0  0  0  0  0
  -44.0137   61.5333   61.0928 C   0  0  0  0  0  0  0  0  0  0  0  0
  -35.4212   59.8922   65.6081 O   0  0  0  0  0  0  0  0  0  0  0  0
  -45.2748   62.3776   61.0509 C   0  0  0  0  0  0  0  0  0  0  0  0
  -34.0061   61.7057   66.5688 O   0  5  0  0  0  0  0  0  0  0  0  0
  -46.5390   61.5718   60.7860 C   0  0  0  0  0  0  0  0  0  0  0  0
  -33.9191   59.3465   67.5274 O   0  0  0  0  0  0  0  0  0  0  0  0
  -46.5129   60.8149   59.4739 C   0  0  0  0  0  0  0  0  0  0  0  0
  -32.8969   59.8652   65.3183 O   0  0  0  0  0  0  0  0  0  0  0  0
  -47.7814   60.0276   59.2071 C   0  0  0  0  0  0  0  0  0  0  0  0
  -31.4835   63.7734   65.2136 O   0  0  0  0  0  0  0  0  0  0  0  0
  -48.0983   58.9841   60.2723 C   0  0  0  0  0  0  0  0  0  0  0  0
  -29.9182   61.7038   66.3515 O   0  0  0  0  0  0  0  0  0  0  0  0
  -47.0137   57.9424   60.4502 C   0  0  0  0  0  0  0  0  0  0  0  0
  -38.2720   59.8520   65.2990 O   0  0  0  0  0  0  0  0  0  0  0  0
  -46.7071   57.1484   59.1965 C   0  0  0  0  0  0  0  0  0  0  0  0
  -36.8606   59.5894   67.0308 O   0  0  0  0  0  0  0  0  0  0  0  0
  -45.6324   56.1062   59.4130 C   0  0  0  0  0  0  0  0  0  0  0  0
  -44.3215   56.6864   59.8740 C   0  0  0  0  0  0  0  0  0  0  0  0
  -43.2508   55.6412   60.0710 C   0  0  0  0  0  0  0  0  0  0  0  0
  -41.9348   56.2186   60.5511 C   0  0  0  0  0  0  0  0  0  0  0  0
  -41.3543   57.2403   59.5998 C   0  0  0  0  0  0  0  0  0  0  0  0
  -40.0298   57.8219   60.0469 C   0  0  0  0  0  0  0  0  0  0  0  0
  -40.1178   58.5178   61.3946 C   0  0  0  0  0  0  0  0  0  0  0  0
  -38.8234   59.1206   61.8593 C   0  0  0  0  0  0  0  0  0  0  0  0
  -37.0720   58.9080   63.4380 C   0  0  0  0  0  0  0  0  0  0  0  0
  -37.3490   60.1700   64.2050 C   0  0  2  0  0  0  0  0  0  0  0  0
  -36.0840   60.8130   64.7130 C   0  0  0  0  0  0  0  0  0  0  0  0
  -31.5128   60.0453   65.6815 C   0  0  0  0  0  0  0  0  0  0  0  0
  -31.2915   61.5026   66.0043 C   0  0  2  0  0  0  0  0  0  0  0  0
  -31.6781   62.4098   64.8609 C   0  0  0  0  0  0  0  0  0  0  0  0
  -37.8399   60.0926   66.5518 C   0  0  0  0  0  0  0  0  0  0  0  0
  -38.7148   61.0747   67.2675 C   0  0  0  0  0  0  0  0  0  0  0  0
  -39.8670   61.5436   66.3848 C   0  0  0  0  0  0  0  0  0  0  0  0
  -40.7820   62.5570   67.0525 C   0  0  0  0  0  0  0  0  0  0  0  0
  -41.9403   63.0073   66.1696 C   0  0  0  0  0  0  0  0  0  0  0  0
  -42.8690   61.8833   65.7495 C   0  0  0  0  0  0  0  0  0  0  0  0
  -43.5567   61.1582   66.9099 C   0  0  0  0  0  0  0  0  0  0  0  0
  -42.6123   60.5027   67.9198 C   0  0  0  0  0  0  0  0  0  0  0  0
  -43.3564   59.7995   69.0151 C   0  0  0  0  0  0  0  0  0  0  0  0
  -43.7377   60.3175   70.1665 C   0  0  0  0  0  0  0  0  0  0  0  0
  -43.5068   61.7241   70.6211 C   0  0  0  0  0  0  0  0  0  0  0  0
  -44.6462   62.6586   70.2250 C   0  0  0  0  0  0  0  0  0  0  0  0
  -44.4323   64.0983   70.6583 C   0  0  0  0  0  0  0  0  0  0  0  0
  -43.1920   64.7379   70.0585 C   0  0  0  0  0  0  0  0  0  0  0  0
  -43.1909   64.8075   68.5404 C   0  0  0  0  0  0  0  0  0  0  0  0
  -41.9316   65.4363   67.9639 C   0  0  0  0  0  0  0  0  0  0  0  0
  -41.9195   65.5299   66.4510 C   0  0  0  0  0  0  0  0  0  0  0  0
  -43.0442   66.3686   65.9113 C   0  0  0  0  0  0  0  0  0  0  0  0
  -41.8553   63.5383   62.8597 H   0  0  0  0  0  0  0  0  0  0  0  0
  -42.8962   62.2842   63.4895 H   0  0  0  0  0  0  0  0  0  0  0  0
  -43.5907   63.6981   62.7335 H   0  0  0  0  0  0  0  0  0  0  0  0
  -41.9142   61.6279   61.3601 H   0  0  0  0  0  0  0  0  0  0  0  0
  -42.6414   63.0576   60.6146 H   0  0  0  0  0  0  0  0  0  0  0  0
  -44.1309   60.7973   61.8605 H   0  0  0  0  0  0  0  0  0  0  0  0
  -43.9014   61.1098   60.1166 H   0  0  0  0  0  0  0  0  0  0  0  0
  -45.1688   63.1058   60.2741 H   0  0  0  0  0  0  0  0  0  0  0  0
  -45.3848   62.8256   62.0164 H   0  0  0  0  0  0  0  0  0  0  0  0
  -47.3716   62.2438   60.7722 H   0  0  0  0  0  0  0  0  0  0  0  0
  -46.6159   60.8438   61.5664 H   0  0  0  0  0  0  0  0  0  0  0  0
  -34.6110   59.5574   68.1737 H   0  0  0  0  0  0  0  0  0  0  0  0
  -45.6882   60.1334   59.4919 H   0  0  0  0  0  0  0  0  0  0  0  0
  -46.4213   61.5403   58.6927 H   0  0  0  0  0  0  0  0  0  0  0  0
  -47.6758   59.5276   58.2670 H   0  0  0  0  0  0  0  0  0  0  0  0
  -48.5887   60.7298   59.2114 H   0  0  0  0  0  0  0  0  0  0  0  0
  -31.7369   64.3396   64.4679 H   0  0  0  0  0  0  0  0  0  0  0  0
  -49.0035   58.4846   59.9964 H   0  0  0  0  0  0  0  0  0  0  0  0
  -48.1850   59.5053   61.2027 H   0  0  0  0  0  0  0  0  0  0  0  0
  -29.6811   61.1166   67.0862 H   0  0  0  0  0  0  0  0  0  0  0  0
  -47.3254   57.2594   61.2127 H   0  0  0  0  0  0  0  0  0  0  0  0
  -46.1189   58.4693   60.7084 H   0  0  0  0  0  0  0  0  0  0  0  0
  -46.3795   57.8247   58.4347 H   0  0  0  0  0  0  0  0  0  0  0  0
  -47.6020   56.6353   58.9123 H   0  0  0  0  0  0  0  0  0  0  0  0
  -45.4692   55.5903   58.4899 H   0  0  0  0  0  0  0  0  0  0  0  0
  -45.9778   55.4520   60.1861 H   0  0  0  0  0  0  0  0  0  0  0  0
  -44.4803   57.1913   60.8039 H   0  0  0  0  0  0  0  0  0  0  0  0
  -43.9806   57.3537   59.1102 H   0  0  0  0  0  0  0  0  0  0  0  0
  -43.0842   55.1448   59.1378 H   0  0  0  0  0  0  0  0  0  0  0  0
  -43.5980   54.9686   60.8273 H   0  0  0  0  0  0  0  0  0  0  0  0
  -41.2324   55.4192   60.6626 H   0  0  0  0  0  0  0  0  0  0  0  0
  -42.1241   56.7171   61.4788 H   0  0  0  0  0  0  0  0  0  0  0  0
  -42.0560   58.0418   59.4991 H   0  0  0  0  0  0  0  0  0  0  0  0
  -41.1710   56.7317   58.6764 H   0  0  0  0  0  0  0  0  0  0  0  0
  -39.7040   58.5322   59.3159 H   0  0  0  0  0  0  0  0  0  0  0  0
  -39.3391   57.0109   60.1473 H   0  0  0  0  0  0  0  0  0  0  0  0
  -40.4351   57.8009   62.1228 H   0  0  0  0  0  0  0  0  0  0  0  0
  -40.8105   59.3252   61.2802 H   0  0  0  0  0  0  0  0  0  0  0  0
  -36.4020   59.0962   62.6252 H   0  0  0  0  0  0  0  0  0  0  0  0
  -36.6048   58.1555   64.0382 H   0  0  0  0  0  0  0  0  0  0  0  0
  -37.7985   60.8886   63.5519 H   0  0  0  0  0  0  0  0  0  0  0  0
  -35.4401   61.0403   63.8892 H   0  0  0  0  0  0  0  0  0  0  0  0
  -36.3193   61.7188   65.2317 H   0  0  0  0  0  0  0  0  0  0  0  0
  -30.8843   59.7563   64.8652 H   0  0  0  0  0  0  0  0  0  0  0  0
  -31.2737   59.4400   66.5308 H   0  0  0  0  0  0  0  0  0  0  0  0
  -31.9228   61.7569   66.8299 H   0  0  0  0  0  0  0  0  0  0  0  0
  -31.0742   62.1778   64.0087 H   0  0  0  0  0  0  0  0  0  0  0  0
  -32.7128   62.2570   64.6352 H   0  0  0  0  0  0  0  0  0  0  0  0
  -38.1265   61.9224   67.5508 H   0  0  0  0  0  0  0  0  0  0  0  0
  -39.1267   60.5919   68.1290 H   0  0  0  0  0  0  0  0  0  0  0  0
  -40.4518   60.6898   66.1126 H   0  0  0  0  0  0  0  0  0  0  0  0
  -39.4308   62.0301   65.5375 H   0  0  0  0  0  0  0  0  0  0  0  0
  -40.2013   63.4169   67.3134 H   0  0  0  0  0  0  0  0  0  0  0  0
  -41.2080   62.0786   67.9096 H   0  0  0  0  0  0  0  0  0  0  0  0
  -41.5357   63.4571   65.2871 H   0  0  0  0  0  0  0  0  0  0  0  0
  -42.5243   63.6909   66.7498 H   0  0  0  0  0  0  0  0  0  0  0  0
  -42.2971   61.1656   65.1994 H   0  0  0  0  0  0  0  0  0  0  0  0
  -43.6471   62.3333   65.1690 H   0  0  0  0  0  0  0  0  0  0  0  0
  -44.1830   60.3945   66.4983 H   0  0  0  0  0  0  0  0  0  0  0  0
  -44.0958   61.9078   67.4506 H   0  0  0  0  0  0  0  0  0  0  0  0
  -41.9930   61.2593   68.3543 H   0  0  0  0  0  0  0  0  0  0  0  0
  -42.0276   59.7738   67.3986 H   0  0  0  0  0  0  0  0  0  0  0  0
  -43.5947   58.8088   68.8513 H   0  0  0  0  0  0  0  0  0  0  0  0
  -44.2430   59.6938   70.8151 H   0  0  0  0  0  0  0  0  0  0  0  0
  -42.5997   62.0827   70.1813 H   0  0  0  0  0  0  0  0  0  0  0  0
  -43.4484   61.7159   71.6895 H   0  0  0  0  0  0  0  0  0  0  0  0
  -45.5487   62.3007   70.6747 H   0  0  0  0  0  0  0  0  0  0  0  0
  -44.6949   62.6573   69.1561 H   0  0  0  0  0  0  0  0  0  0  0  0
  -44.3422   64.1205   71.7243 H   0  0  0  0  0  0  0  0  0  0  0  0
  -45.2739   64.6588   70.3084 H   0  0  0  0  0  0  0  0  0  0  0  0
  -42.3399   64.1693   70.3676 H   0  0  0  0  0  0  0  0  0  0  0  0
  -43.1703   65.7483   70.4097 H   0  0  0  0  0  0  0  0  0  0  0  0
  -44.0335   65.3880   68.2272 H   0  0  0  0  0  0  0  0  0  0  0  0
  -43.2350   63.8015   68.1786 H   0  0  0  0  0  0  0  0  0  0  0  0
  -41.0923   64.8476   68.2702 H   0  0  0  0  0  0  0  0  0  0  0  0
  -41.8920   66.4395   68.3340 H   0  0  0  0  0  0  0  0  0  0  0  0
  -42.0044   64.5429   66.0465 H   0  0  0  0  0  0  0  0  0  0  0  0
  -41.0013   65.9983   66.1640 H   0  0  0  0  0  0  0  0  0  0  0  0
  -43.9804   65.9265   66.1815 H   0  0  0  0  0  0  0  0  0  0  0  0
  -42.9695   66.4221   64.8452 H   0  0  0  0  0  0  0  0  0  0  0  0
  -42.9833   67.3544   66.3230 H   0  0  0  0  0  0  0  0  0  0  0  0
  1  4  1  0  0  0  0
  1 54  1  0  0  0  0
  1 55  1  0  0  0  0
  1 56  1  0  0  0  0
  2 29  2  0  0  0  0
  3  7  1  0  0  0  0
  3  9  2  1  0  0  0
  3 11  1  0  0  0  0
  3 13  1  0  0  0  0
  4  6  1  0  0  0  0
  4 57  1  0  0  0  0
  4 58  1  0  0  0  0
  5 29  1  0  0  0  0
  5 30  1  0  0  0  0
  6  8  1  0  0  0  0
  6 59  1  0  0  0  0
  6 60  1  0  0  0  0
  7 32  1  0  0  0  0
  8 10  1  0  0  0  0
  8 61  1  0  0  0  0
  8 62  1  0  0  0  0
 10 12  1  0  0  0  0
 10 63  1  0  0  0  0
 10 64  1  0  0  0  0
 11 65  1  0  0  0  0
 12 14  1  0  0  0  0
 12 66  1  0  0  0  0
 12 67  1  0  0  0  0
 13 33  1  0  0  0  0
 14 16  1  0  0  0  0
 14 68  1  0  0  0  0
 14 69  1  0  0  0  0
 15 35  1  0  0  0  0
 15 70  1  0  0  0  0
 16 18  1  0  0  0  0
 16 71  1  0  0  0  0
 16 72  1  0  0  0  0
 17 34  1  0  0  0  0
 17 73  1  0  0  0  0
 18 20  1  0  0  0  0
 18 74  1  0  0  0  0
 18 75  1  0  0  0  0
 19 31  1  0  0  0  0
 19 36  1  0  0  0  0
 20 22  1  0  0  0  0
 20 76  1  0  0  0  0
 20 77  1  0  0  0  0
 21 36  2  0  0  0  0
 22 23  1  0  0  0  0
 22 78  1  0  0  0  0
 22 79  1  0  0  0  0
 23 24  1  0  0  0  0
 23 80  1  0  0  0  0
 23 81  1  0  0  0  0
 24 25  1  0  0  0  0
 24 82  1  0  0  0  0
 24 83  1  0  0  0  0
 25 26  1  0  0  0  0
 25 84  1  0  0  0  0
 25 85  1  0  0  0  0
 26 27  1  0  0  0  0
 26 86  1  0  0  0  0
 26 87  1  0  0  0  0
 27 28  1  0  0  0  0
 27 88  1  0  0  0  0
 27 89  1  0  0  0  0
 28 29  1  0  0  0  0
 28 90  1  0  0  0  0
 28 91  1  0  0  0  0
 30 31  1  0  0  0  0
 30 92  1  0  0  0  0
 30 93  1  0  0  0  0
 31 32  1  0  0  0  0
 31 94  1  6  0  0  0
 32 95  1  0  0  0  0
 32 96  1  0  0  0  0
 33 34  1  0  0  0  0
 33 97  1  0  0  0  0
 33 98  1  0  0  0  0
 34 35  1  0  0  0  0
 34 99  1  1  0  0  0
 35100  1  0  0  0  0
 35101  1  0  0  0  0
 36 37  1  0  0  0  0
 37 38  1  0  0  0  0
 37102  1  0  0  0  0
 37103  1  0  0  0  0
 38 39  1  0  0  0  0
 38104  1  0  0  0  0
 38105  1  0  0  0  0
 39 40  1  0  0  0  0
 39106  1  0  0  0  0
 39107  1  0  0  0  0
 40 41  1  0  0  0  0
 40108  1  0  0  0  0
 40109  1  0  0  0  0
 41 42  1  0  0  0  0
 41110  1  0  0  0  0
 41111  1  0  0  0  0
 42 43  1  0  0  0  0
 42112  1  0  0  0  0
 42113  1  0  0  0  0
 43 44  1  0  0  0  0
 43114  1  0  0  0  0
 43115  1  0  0  0  0
 44 45  2  0  0  0  0
 44116  1  0  0  0  0
 45 46  1  0  0  0  0
 45117  1  0  0  0  0
 46 47  1  0  0  0  0
 46118  1  0  0  0  0
 46119  1  0  0  0  0
 47 48  1  0  0  0  0
 47120  1  0  0  0  0
 47121  1  0  0  0  0
 48 49  1  0  0  0  0
 48122  1  0  0  0  0
 48123  1  0  0  0  0
 49 50  1  0  0  0  0
 49124  1  0  0  0  0
 49125  1  0  0  0  0
 50 51  1  0  0  0  0
 50126  1  0  0  0  0
 50127  1  0  0  0  0
 51 52  1  0  0  0  0
 51128  1  0  0  0  0
 51129  1  0  0  0  0
 52 53  1  0  0  0  0
 52130  1  0  0  0  0
 52131  1  0  0  0  0
 53132  1  0  0  0  0
 53133  1  0  0  0  0
 53134  1  0  0  0  0
M  CHG  1   9  -1
M  END
$$$$