/media/chris/experiments/cd1a-new-docking/inputs/ligands/7sh4_ligand.pdb
 OpenBabel07012320073D

134133  0  0  1  0  0  0  0  0999 V2000
  -36.2735   60.1014   47.2020 C   0  0  0  0  0  0  0  0  0  0  0  0
  -34.5047   59.7410   63.8599 O   0  0  0  0  0  0  0  0  0  0  0  0
  -37.2082   63.2406   64.7182 P   0  0  1  0  0  0  0  0  0  0  0  0
  -36.9204   60.7601   48.3993 C   0  0  0  0  0  0  0  0  0  0  0  0
  -36.1511   59.3213   62.4064 O   0  0  0  0  0  0  0  0  0  0  0  0
  -35.9908   60.8252   49.5962 C   0  0  0  0  0  0  0  0  0  0  0  0
  -36.4293   62.0282   65.4148 O   0  0  0  0  0  0  0  0  0  0  0  0
  -35.4948   59.4777   50.0895 C   0  0  0  0  0  0  0  0  0  0  0  0
  -38.5219   62.7387   64.2612 O   0  5  0  0  0  0  0  0  0  0  0  0
  -36.6125   58.5344   50.5120 C   0  0  0  0  0  0  0  0  0  0  0  0
  -37.1705   64.4028   65.6384 O   0  0  0  0  0  0  0  0  0  0  0  0
  -37.4796   59.0814   51.6274 C   0  0  0  0  0  0  0  0  0  0  0  0
  -36.3475   63.6096   63.4275 O   0  0  0  0  0  0  0  0  0  0  0  0
  -36.7063   59.3934   52.8942 C   0  0  0  0  0  0  0  0  0  0  0  0
  -37.9981   64.7509   59.6669 O   0  0  0  0  0  0  0  0  0  0  0  0
  -35.9857   58.1904   53.4921 C   0  0  0  0  0  0  0  0  0  0  0  0
  -37.6513   65.8042   62.2889 O   0  0  0  0  0  0  0  0  0  0  0  0
  -35.2284   58.5018   54.7660 C   0  0  0  0  0  0  0  0  0  0  0  0
  -38.2720   59.8520   65.2990 O   0  0  0  0  0  0  0  0  0  0  0  0
  -34.1601   59.5645   54.6063 C   0  0  0  0  0  0  0  0  0  0  0  0
  -36.6868   60.0455   66.8833 O   0  0  0  0  0  0  0  0  0  0  0  0
  -33.4121   59.8389   55.8921 C   0  0  0  0  0  0  0  0  0  0  0  0
  -34.3026   60.3036   57.0140 C   0  0  0  0  0  0  0  0  0  0  0  0
  -33.5454   60.5911   58.2874 C   0  0  0  0  0  0  0  0  0  0  0  0
  -32.7919   59.3881   58.8177 C   0  0  0  0  0  0  0  0  0  0  0  0
  -32.0482   59.6747   60.1025 C   0  0  0  0  0  0  0  0  0  0  0  0
  -32.9369   60.1019   61.2515 C   0  0  0  0  0  0  0  0  0  0  0  0
  -33.9609   59.0445   61.6279 C   0  0  0  0  0  0  0  0  0  0  0  0
  -34.8698   59.4444   62.7543 C   0  0  0  0  0  0  0  0  0  0  0  0
  -37.0720   58.9080   63.4380 C   0  0  0  0  0  0  0  0  0  0  0  0
  -37.3490   60.1700   64.2050 C   0  0  2  0  0  0  0  0  0  0  0  0
  -36.0840   60.8130   64.7130 C   0  0  0  0  0  0  0  0  0  0  0  0
  -36.9404   63.5222   62.1157 C   0  0  0  0  0  0  0  0  0  0  0  0
  -38.1135   64.4697   62.0598 C   0  0  2  0  0  0  0  0  0  0  0  0
  -38.8526   64.3927   60.7454 C   0  0  0  0  0  0  0  0  0  0  0  0
  -37.8399   60.0926   66.5518 C   0  0  0  0  0  0  0  0  0  0  0  0
  -38.9653   60.4431   67.4752 C   0  0  0  0  0  0  0  0  0  0  0  0
  -38.6733   60.0004   68.9054 C   0  0  0  0  0  0  0  0  0  0  0  0
  -37.4360   60.6443   69.5094 C   0  0  0  0  0  0  0  0  0  0  0  0
  -37.5192   62.1641   69.5940 C   0  0  0  0  0  0  0  0  0  0  0  0
  -36.2817   62.8180   70.1801 C   0  0  0  0  0  0  0  0  0  0  0  0
  -34.9943   62.5676   69.3896 C   0  0  0  0  0  0  0  0  0  0  0  0
  -35.0051   63.0796   67.9476 C   0  0  0  0  0  0  0  0  0  0  0  0
  -33.7203   62.7840   67.2336 C   0  0  0  0  0  0  0  0  0  0  0  0
  -32.6537   63.5578   67.1791 C   0  0  0  0  0  0  0  0  0  0  0  0
  -32.5026   64.8993   67.8240 C   0  0  0  0  0  0  0  0  0  0  0  0
  -33.8316   65.6386   67.9484 C   0  0  0  0  0  0  0  0  0  0  0  0
  -34.5199   65.8834   66.6171 C   0  0  0  0  0  0  0  0  0  0  0  0
  -35.8346   66.6343   66.7391 C   0  0  0  0  0  0  0  0  0  0  0  0
  -36.5475   66.8745   65.4187 C   0  0  0  0  0  0  0  0  0  0  0  0
  -37.8522   67.6426   65.5658 C   0  0  0  0  0  0  0  0  0  0  0  0
  -38.8758   66.9654   66.4554 C   0  0  0  0  0  0  0  0  0  0  0  0
  -39.2616   65.5988   65.9622 C   0  0  0  0  0  0  0  0  0  0  0  0
  -36.9677   60.0805   46.3880 H   0  0  0  0  0  0  0  0  0  0  0  0
  -35.9902   59.1011   47.4550 H   0  0  0  0  0  0  0  0  0  0  0  0
  -35.4047   60.6566   46.9157 H   0  0  0  0  0  0  0  0  0  0  0  0
  -37.7912   60.2004   48.6705 H   0  0  0  0  0  0  0  0  0  0  0  0
  -37.1692   61.7638   48.1245 H   0  0  0  0  0  0  0  0  0  0  0  0
  -36.5140   61.3017   50.3988 H   0  0  0  0  0  0  0  0  0  0  0  0
  -35.1252   61.3670   49.2769 H   0  0  0  0  0  0  0  0  0  0  0  0
  -34.8535   59.6404   50.9304 H   0  0  0  0  0  0  0  0  0  0  0  0
  -34.9841   59.0129   49.2721 H   0  0  0  0  0  0  0  0  0  0  0  0
  -36.1732   57.6170   50.8442 H   0  0  0  0  0  0  0  0  0  0  0  0
  -37.2461   58.3979   49.6606 H   0  0  0  0  0  0  0  0  0  0  0  0
  -37.6885   64.2024   66.4336 H   0  0  0  0  0  0  0  0  0  0  0  0
  -38.2316   58.3563   51.8590 H   0  0  0  0  0  0  0  0  0  0  0  0
  -37.8991   60.0019   51.2787 H   0  0  0  0  0  0  0  0  0  0  0  0
  -37.3925   59.7712   53.6230 H   0  0  0  0  0  0  0  0  0  0  0  0
  -35.9530   60.1059   52.6298 H   0  0  0  0  0  0  0  0  0  0  0  0
  -38.4898   64.6954   58.8327 H   0  0  0  0  0  0  0  0  0  0  0  0
  -35.2901   57.8200   52.7683 H   0  0  0  0  0  0  0  0  0  0  0  0
  -36.7368   57.4713   53.7443 H   0  0  0  0  0  0  0  0  0  0  0  0
  -37.1786   65.8418   63.1351 H   0  0  0  0  0  0  0  0  0  0  0  0
  -34.7594   57.6023   55.1066 H   0  0  0  0  0  0  0  0  0  0  0  0
  -35.9430   58.8849   55.4641 H   0  0  0  0  0  0  0  0  0  0  0  0
  -34.6255   60.4714   54.2809 H   0  0  0  0  0  0  0  0  0  0  0  0
  -33.4508   59.2045   53.8906 H   0  0  0  0  0  0  0  0  0  0  0  0
  -32.6803   60.5966   55.7038 H   0  0  0  0  0  0  0  0  0  0  0  0
  -32.9681   58.9163   56.2025 H   0  0  0  0  0  0  0  0  0  0  0  0
  -35.0268   59.5414   57.2126 H   0  0  0  0  0  0  0  0  0  0  0  0
  -34.7611   61.2183   56.7009 H   0  0  0  0  0  0  0  0  0  0  0  0
  -34.2429   60.9113   59.0330 H   0  0  0  0  0  0  0  0  0  0  0  0
  -32.8216   61.3466   58.0636 H   0  0  0  0  0  0  0  0  0  0  0  0
  -32.0854   59.0752   58.0776 H   0  0  0  0  0  0  0  0  0  0  0  0
  -33.5134   58.6269   59.0292 H   0  0  0  0  0  0  0  0  0  0  0  0
  -31.3429   60.4571   59.9147 H   0  0  0  0  0  0  0  0  0  0  0  0
  -31.5815   58.7585   60.3987 H   0  0  0  0  0  0  0  0  0  0  0  0
  -33.4550   60.9946   60.9695 H   0  0  0  0  0  0  0  0  0  0  0  0
  -32.3089   60.2601   62.1033 H   0  0  0  0  0  0  0  0  0  0  0  0
  -33.4372   58.1576   61.9175 H   0  0  0  0  0  0  0  0  0  0  0  0
  -34.5813   58.8964   60.7687 H   0  0  0  0  0  0  0  0  0  0  0  0
  -36.6274   58.1683   64.0706 H   0  0  0  0  0  0  0  0  0  0  0  0
  -37.9610   58.4631   63.0423 H   0  0  0  0  0  0  0  0  0  0  0  0
  -37.7985   60.8886   63.5519 H   0  0  0  0  0  0  0  0  0  0  0  0
  -35.5824   60.1428   65.3795 H   0  0  0  0  0  0  0  0  0  0  0  0
  -35.4356   61.0386   63.8923 H   0  0  0  0  0  0  0  0  0  0  0  0
  -37.2749   62.5218   61.9362 H   0  0  0  0  0  0  0  0  0  0  0  0
  -36.2205   63.7836   61.3685 H   0  0  0  0  0  0  0  0  0  0  0  0
  -38.8061   64.1820   62.8230 H   0  0  0  0  0  0  0  0  0  0  0  0
  -39.2039   63.3928   60.5981 H   0  0  0  0  0  0  0  0  0  0  0  0
  -39.6762   65.0752   60.7732 H   0  0  0  0  0  0  0  0  0  0  0  0
  -39.8570   59.9583   67.1364 H   0  0  0  0  0  0  0  0  0  0  0  0
  -39.0847   61.5064   67.4706 H   0  0  0  0  0  0  0  0  0  0  0  0
  -38.5361   58.9393   68.9081 H   0  0  0  0  0  0  0  0  0  0  0  0
  -39.5063   60.3088   69.5020 H   0  0  0  0  0  0  0  0  0  0  0  0
  -36.5910   60.3847   68.9065 H   0  0  0  0  0  0  0  0  0  0  0  0
  -37.3488   60.2783   70.5110 H   0  0  0  0  0  0  0  0  0  0  0  0
  -38.3580   62.4216   70.2064 H   0  0  0  0  0  0  0  0  0  0  0  0
  -37.6149   62.5253   68.5914 H   0  0  0  0  0  0  0  0  0  0  0  0
  -36.1431   62.4413   71.1720 H   0  0  0  0  0  0  0  0  0  0  0  0
  -36.4543   63.8736   70.1528 H   0  0  0  0  0  0  0  0  0  0  0  0
  -34.8211   61.5120   69.3648 H   0  0  0  0  0  0  0  0  0  0  0  0
  -34.2254   63.1152   69.8933 H   0  0  0  0  0  0  0  0  0  0  0  0
  -35.1577   64.1386   67.9588 H   0  0  0  0  0  0  0  0  0  0  0  0
  -35.7941   62.5787   67.4265 H   0  0  0  0  0  0  0  0  0  0  0  0
  -33.6649   61.8829   66.7336 H   0  0  0  0  0  0  0  0  0  0  0  0
  -31.8472   63.2046   66.6408 H   0  0  0  0  0  0  0  0  0  0  0  0
  -31.8344   65.4908   67.2338 H   0  0  0  0  0  0  0  0  0  0  0  0
  -32.1217   64.7450   68.8120 H   0  0  0  0  0  0  0  0  0  0  0  0
  -33.6498   66.5847   68.4139 H   0  0  0  0  0  0  0  0  0  0  0  0
  -34.4824   65.0175   68.5278 H   0  0  0  0  0  0  0  0  0  0  0  0
  -34.7128   64.9367   66.1573 H   0  0  0  0  0  0  0  0  0  0  0  0
  -33.8636   66.4943   66.0331 H   0  0  0  0  0  0  0  0  0  0  0  0
  -35.6364   67.5844   67.1897 H   0  0  0  0  0  0  0  0  0  0  0  0
  -36.4830   66.0195   67.3278 H   0  0  0  0  0  0  0  0  0  0  0  0
  -36.7611   65.9262   64.9715 H   0  0  0  0  0  0  0  0  0  0  0  0
  -35.8972   67.4707   64.8133 H   0  0  0  0  0  0  0  0  0  0  0  0
  -38.2813   67.7643   64.5932 H   0  0  0  0  0  0  0  0  0  0  0  0
  -37.6090   68.5746   66.0317 H   0  0  0  0  0  0  0  0  0  0  0  0
  -39.7537   67.5760   66.4929 H   0  0  0  0  0  0  0  0  0  0  0  0
  -38.4341   66.8464   67.4227 H   0  0  0  0  0  0  0  0  0  0  0  0
  -39.7080   65.6823   64.9933 H   0  0  0  0  0  0  0  0  0  0  0  0
  -39.9621   65.1592   66.6410 H   0  0  0  0  0  0  0  0  0  0  0  0
  -38.3892   64.9823   65.9010 H   0  0  0  0  0  0  0  0  0  0  0  0
  1  4  1  0  0  0  0
  1 54  1  0  0  0  0
  1 55  1  0  0  0  0
  1 56  1  0  0  0  0
  2 29  2  0  0  0  0
  3  7  1  0  0  0  0
  3  9  2  6  0  0  0
  3 11  1  0  0  0  0
  3 13  1  0  0  0  0
  4  6  1  0  0  0  0
  4 57  1  0  0  0  0
  4 58  1  0  0  0  0
  5 29  1  0  0  0  0
  5 30  1  0  0  0  0
  6  8  1  0  0  0  0
  6 59  1  0  0  0  0
  6 60  1  0  0  0  0
  7 32  1  0  0  0  0
  8 10  1  0  0  0  0
  8 61  1  0  0  0  0
  8 62  1  0  0  0  0
 10 12  1  0  0  0  0
 10 63  1  0  0  0  0
 10 64  1  0  0  0  0
 11 65  1  0  0  0  0
 12 14  1  0  0  0  0
 12 66  1  0  0  0  0
 12 67  1  0  0  0  0
 13 33  1  0  0  0  0
 14 16  1  0  0  0  0
 14 68  1  0  0  0  0
 14 69  1  0  0  0  0
 15 35  1  0  0  0  0
 15 70  1  0  0  0  0
 16 18  1  0  0  0  0
 16 71  1  0  0  0  0
 16 72  1  0  0  0  0
 17 34  1  0  0  0  0
 17 73  1  0  0  0  0
 18 20  1  0  0  0  0
 18 74  1  0  0  0  0
 18 75  1  0  0  0  0
 19 31  1  0  0  0  0
 19 36  1  0  0  0  0
 20 22  1  0  0  0  0
 20 76  1  0  0  0  0
 20 77  1  0  0  0  0
 21 36  2  0  0  0  0
 22 23  1  0  0  0  0
 22 78  1  0  0  0  0
 22 79  1  0  0  0  0
 23 24  1  0  0  0  0
 23 80  1  0  0  0  0
 23 81  1  0  0  0  0
 24 25  1  0  0  0  0
 24 82  1  0  0  0  0
 24 83  1  0  0  0  0
 25 26  1  0  0  0  0
 25 84  1  0  0  0  0
 25 85  1  0  0  0  0
 26 27  1  0  0  0  0
 26 86  1  0  0  0  0
 26 87  1  0  0  0  0
 27 28  1  0  0  0  0
 27 88  1  0  0  0  0
 27 89  1  0  0  0  0
 28 29  1  0  0  0  0
 28 90  1  0  0  0  0
 28 91  1  0  0  0  0
 30 31  1  0  0  0  0
 30 92  1  0  0  0  0
 30 93  1  0  0  0  0
 31 32  1  0  0  0  0
 31 94  1  6  0  0  0
 32 95  1  0  0  0  0
 32 96  1  0  0  0  0
 33 34  1  0  0  0  0
 33 97  1  0  0  0  0
 33 98  1  0  0  0  0
 34 35  1  0  0  0  0
 34 99  1  1  0  0  0
 35100  1  0  0  0  0
 35101  1  0  0  0  0
 36 37  1  0  0  0  0
 37 38  1  0  0  0  0
 37102  1  0  0  0  0
 37103  1  0  0  0  0
 38 39  1  0  0  0  0
 38104  1  0  0  0  0
 38105  1  0  0  0  0
 39 40  1  0  0  0  0
 39106  1  0  0  0  0
 39107  1  0  0  0  0
 40 41  1  0  0  0  0
 40108  1  0  0  0  0
 40109  1  0  0  0  0
 41 42  1  0  0  0  0
 41110  1  0  0  0  0
 41111  1  0  0  0  0
 42 43  1  0  0  0  0
 42112  1  0  0  0  0
 42113  1  0  0  0  0
 43 44  1  0  0  0  0
 43114  1  0  0  0  0
 43115  1  0  0  0  0
 44 45  2  0  0  0  0
 44116  1  0  0  0  0
 45 46  1  0  0  0  0
 45117  1  0  0  0  0
 46 47  1  0  0  0  0
 46118  1  0  0  0  0
 46119  1  0  0  0  0
 47 48  1  0  0  0  0
 47120  1  0  0  0  0
 47121  1  0  0  0  0
 48 49  1  0  0  0  0
 48122  1  0  0  0  0
 48123  1  0  0  0  0
 49 50  1  0  0  0  0
 49124  1  0  0  0  0
 49125  1  0  0  0  0
 50 51  1  0  0  0  0
 50126  1  0  0  0  0
 50127  1  0  0  0  0
 51 52  1  0  0  0  0
 51128  1  0  0  0  0
 51129  1  0  0  0  0
 52 53  1  0  0  0  0
 52130  1  0  0  0  0
 52131  1  0  0  0  0
 53132  1  0  0  0  0
 53133  1  0  0  0  0
 53134  1  0  0  0  0
M  CHG  1   9  -1
M  END
$$$$