/media/chris/experiments/cd1a-new-docking/inputs/ligands/7sh4_ligand.pdb
 OpenBabel07012320073D

134133  0  0  1  0  0  0  0  0999 V2000
  -39.2793   62.7346   58.4903 C   0  0  0  0  0  0  0  0  0  0  0  0
  -37.6219   58.1394   60.8749 O   0  0  0  0  0  0  0  0  0  0  0  0
  -34.6970   59.9912   62.5780 P   0  0  1  0  0  0  0  0  0  0  0  0
  -40.1153   63.8019   59.1595 C   0  0  0  0  0  0  0  0  0  0  0  0
  -38.3690   58.5038   62.9506 O   0  0  0  0  0  0  0  0  0  0  0  0
  -41.5033   63.9115   58.5575 C   0  0  0  0  0  0  0  0  0  0  0  0
  -35.2304   61.1139   63.5864 O   0  0  0  0  0  0  0  0  0  0  0  0
  -41.5290   64.2415   57.0757 C   0  0  0  0  0  0  0  0  0  0  0  0
  -34.5796   58.7215   63.3270 O   0  5  0  0  0  0  0  0  0  0  0  0
  -40.8480   65.5592   56.7331 C   0  0  0  0  0  0  0  0  0  0  0  0
  -35.5431   60.0245   61.3608 O   0  0  0  0  0  0  0  0  0  0  0  0
  -40.8879   65.8976   55.2570 C   0  0  0  0  0  0  0  0  0  0  0  0
  -33.2283   60.4562   62.1666 O   0  0  0  0  0  0  0  0  0  0  0  0
  -40.2231   64.8532   54.3810 C   0  0  0  0  0  0  0  0  0  0  0  0
  -35.4439   60.0719   59.4916 O   0  0  0  0  0  0  0  0  0  0  0  0
  -40.8617   63.4718   54.4710 C   0  0  0  0  0  0  0  0  0  0  0  0
  -32.3436   58.4057   60.5095 O   0  0  0  0  0  0  0  0  0  0  0  0
  -40.1850   62.4274   53.6081 C   0  0  0  0  0  0  0  0  0  0  0  0
  -38.2720   59.8520   65.2990 O   0  0  0  0  0  0  0  0  0  0  0  0
  -38.7304   62.1852   53.9568 C   0  0  0  0  0  0  0  0  0  0  0  0
  -40.0171   59.9196   63.8811 O   0  0  0  0  0  0  0  0  0  0  0  0
  -38.5438   61.6925   55.3748 C   0  0  0  0  0  0  0  0  0  0  0  0
  -39.2368   60.3841   55.6490 C   0  0  0  0  0  0  0  0  0  0  0  0
  -39.0591   59.9092   57.0704 C   0  0  0  0  0  0  0  0  0  0  0  0
  -39.7407   58.5843   57.3463 C   0  0  0  0  0  0  0  0  0  0  0  0
  -39.5751   58.1196   58.7754 C   0  0  0  0  0  0  0  0  0  0  0  0
  -40.1542   59.0656   59.8062 C   0  0  0  0  0  0  0  0  0  0  0  0
  -39.9554   58.5765   61.2308 C   0  0  0  0  0  0  0  0  0  0  0  0
  -38.5165   58.4143   61.6284 C   0  0  0  0  0  0  0  0  0  0  0  0
  -37.0720   58.9080   63.4380 C   0  0  0  0  0  0  0  0  0  0  0  0
  -37.3490   60.1700   64.2050 C   0  0  2  0  0  0  0  0  0  0  0  0
  -36.0840   60.8130   64.7130 C   0  0  0  0  0  0  0  0  0  0  0  0
  -32.9150   60.7168   60.7832 C   0  0  0  0  0  0  0  0  0  0  0  0
  -33.1662   59.4561   59.9929 C   0  0  2  0  0  0  0  0  0  0  0  0
  -34.6178   59.0414   60.0182 C   0  0  0  0  0  0  0  0  0  0  0  0
  -39.5790   59.7587   64.9875 C   0  0  0  0  0  0  0  0  0  0  0  0
  -40.4161   59.4128   66.1798 C   0  0  0  0  0  0  0  0  0  0  0  0
  -41.4550   60.4925   66.4655 C   0  0  0  0  0  0  0  0  0  0  0  0
  -42.3257   60.2047   67.6775 C   0  0  0  0  0  0  0  0  0  0  0  0
  -41.5397   60.0835   68.9780 C   0  0  0  0  0  0  0  0  0  0  0  0
  -42.3981   59.7794   70.1917 C   0  0  0  0  0  0  0  0  0  0  0  0
  -41.6237   59.6715   71.5084 C   0  0  0  0  0  0  0  0  0  0  0  0
  -40.5392   58.5925   71.5400 C   0  0  0  0  0  0  0  0  0  0  0  0
  -41.0969   57.2235   71.2893 C   0  0  0  0  0  0  0  0  0  0  0  0
  -40.4741   56.2126   70.7152 C   0  0  0  0  0  0  0  0  0  0  0  0
  -39.0722   56.2214   70.1928 C   0  0  0  0  0  0  0  0  0  0  0  0
  -38.6732   54.8851   69.5734 C   0  0  0  0  0  0  0  0  0  0  0  0
  -39.5347   54.4804   68.3901 C   0  0  0  0  0  0  0  0  0  0  0  0
  -39.1485   53.1422   67.7839 C   0  0  0  0  0  0  0  0  0  0  0  0
  -39.9884   52.7271   66.5874 C   0  0  0  0  0  0  0  0  0  0  0  0
  -39.5934   51.3767   66.0094 C   0  0  0  0  0  0  0  0  0  0  0  0
  -39.7303   50.2205   66.9801 C   0  0  0  0  0  0  0  0  0  0  0  0
  -41.1415   50.0296   67.4616 C   0  0  0  0  0  0  0  0  0  0  0  0
  -38.3137   62.6977   58.9497 H   0  0  0  0  0  0  0  0  0  0  0  0
  -39.1713   62.9655   57.4511 H   0  0  0  0  0  0  0  0  0  0  0  0
  -39.7613   61.7852   58.5965 H   0  0  0  0  0  0  0  0  0  0  0  0
  -39.6193   64.7439   59.0530 H   0  0  0  0  0  0  0  0  0  0  0  0
  -40.2266   63.5314   60.1888 H   0  0  0  0  0  0  0  0  0  0  0  0
  -42.0330   64.6809   59.0794 H   0  0  0  0  0  0  0  0  0  0  0  0
  -41.9536   62.9462   58.6595 H   0  0  0  0  0  0  0  0  0  0  0  0
  -42.5496   64.2958   56.7589 H   0  0  0  0  0  0  0  0  0  0  0  0
  -40.9873   63.4681   56.5725 H   0  0  0  0  0  0  0  0  0  0  0  0
  -39.8243   65.5003   57.0389 H   0  0  0  0  0  0  0  0  0  0  0  0
  -41.3826   66.3311   57.2462 H   0  0  0  0  0  0  0  0  0  0  0  0
  -36.4443   59.7449   61.5856 H   0  0  0  0  0  0  0  0  0  0  0  0
  -40.3877   66.8320   55.1096 H   0  0  0  0  0  0  0  0  0  0  0  0
  -41.9180   65.9405   54.9706 H   0  0  0  0  0  0  0  0  0  0  0  0
  -39.1978   64.7698   54.6758 H   0  0  0  0  0  0  0  0  0  0  0  0
  -40.3350   65.1810   53.3687 H   0  0  0  0  0  0  0  0  0  0  0  0
  -36.3709   59.7875   59.5162 H   0  0  0  0  0  0  0  0  0  0  0  0
  -41.8836   63.5522   54.1641 H   0  0  0  0  0  0  0  0  0  0  0  0
  -40.7628   63.1486   55.4862 H   0  0  0  0  0  0  0  0  0  0  0  0
  -31.4142   58.6828   60.4884 H   0  0  0  0  0  0  0  0  0  0  0  0
  -40.2373   62.7485   52.5887 H   0  0  0  0  0  0  0  0  0  0  0  0
  -40.7009   61.5055   53.7777 H   0  0  0  0  0  0  0  0  0  0  0  0
  -38.1930   63.1030   53.8399 H   0  0  0  0  0  0  0  0  0  0  0  0
  -38.3631   61.4247   53.2997 H   0  0  0  0  0  0  0  0  0  0  0  0
  -38.9343   62.4301   56.0443 H   0  0  0  0  0  0  0  0  0  0  0  0
  -37.4957   61.5312   55.5179 H   0  0  0  0  0  0  0  0  0  0  0  0
  -38.8379   59.6421   54.9892 H   0  0  0  0  0  0  0  0  0  0  0  0
  -40.2840   60.5373   55.4913 H   0  0  0  0  0  0  0  0  0  0  0  0
  -39.4689   60.6462   57.7290 H   0  0  0  0  0  0  0  0  0  0  0  0
  -38.0106   59.7669   57.2296 H   0  0  0  0  0  0  0  0  0  0  0  0
  -39.3222   57.8441   56.6967 H   0  0  0  0  0  0  0  0  0  0  0  0
  -40.7878   58.7217   57.1742 H   0  0  0  0  0  0  0  0  0  0  0  0
  -38.5295   58.0073   58.9728 H   0  0  0  0  0  0  0  0  0  0  0  0
  -40.1147   57.1999   58.8643 H   0  0  0  0  0  0  0  0  0  0  0  0
  -41.2033   59.1696   59.6236 H   0  0  0  0  0  0  0  0  0  0  0  0
  -39.6405   59.9994   59.7113 H   0  0  0  0  0  0  0  0  0  0  0  0
  -40.4406   57.6281   61.3313 H   0  0  0  0  0  0  0  0  0  0  0  0
  -40.3709   59.3236   61.8743 H   0  0  0  0  0  0  0  0  0  0  0  0
  -36.4020   59.0962   62.6252 H   0  0  0  0  0  0  0  0  0  0  0  0
  -36.6048   58.1555   64.0382 H   0  0  0  0  0  0  0  0  0  0  0  0
  -37.7985   60.8886   63.5519 H   0  0  0  0  0  0  0  0  0  0  0  0
  -36.3238   61.7163   65.2340 H   0  0  0  0  0  0  0  0  0  0  0  0
  -35.5811   60.1472   65.3829 H   0  0  0  0  0  0  0  0  0  0  0  0
  -31.8875   61.0015   60.6926 H   0  0  0  0  0  0  0  0  0  0  0  0
  -33.5264   61.5122   60.4110 H   0  0  0  0  0  0  0  0  0  0  0  0
  -32.9169   59.6526   58.9710 H   0  0  0  0  0  0  0  0  0  0  0  0
  -34.7408   58.1570   59.4287 H   0  0  0  0  0  0  0  0  0  0  0  0
  -34.9047   58.8547   61.0319 H   0  0  0  0  0  0  0  0  0  0  0  0
  -39.7793   59.3085   67.0333 H   0  0  0  0  0  0  0  0  0  0  0  0
  -40.9308   58.4974   65.9746 H   0  0  0  0  0  0  0  0  0  0  0  0
  -42.0897   60.5842   65.6090 H   0  0  0  0  0  0  0  0  0  0  0  0
  -40.9169   61.3929   66.6766 H   0  0  0  0  0  0  0  0  0  0  0  0
  -42.8461   59.2850   67.5097 H   0  0  0  0  0  0  0  0  0  0  0  0
  -42.9920   61.0344   67.7896 H   0  0  0  0  0  0  0  0  0  0  0  0
  -41.0291   61.0079   69.1501 H   0  0  0  0  0  0  0  0  0  0  0  0
  -40.8688   59.2584   68.8586 H   0  0  0  0  0  0  0  0  0  0  0  0
  -42.8990   58.8492   70.0218 H   0  0  0  0  0  0  0  0  0  0  0  0
  -43.0710   60.6040   70.3019 H   0  0  0  0  0  0  0  0  0  0  0  0
  -42.3248   59.4591   72.2883 H   0  0  0  0  0  0  0  0  0  0  0  0
  -41.1168   60.6057   71.6321 H   0  0  0  0  0  0  0  0  0  0  0  0
  -40.0702   58.6030   72.5017 H   0  0  0  0  0  0  0  0  0  0  0  0
  -39.8367   58.8091   70.7625 H   0  0  0  0  0  0  0  0  0  0  0  0
  -42.0673   57.0551   71.5975 H   0  0  0  0  0  0  0  0  0  0  0  0
  -41.0039   55.3324   70.6169 H   0  0  0  0  0  0  0  0  0  0  0  0
  -38.4057   56.4378   71.0014 H   0  0  0  0  0  0  0  0  0  0  0  0
  -39.0144   56.9660   69.4266 H   0  0  0  0  0  0  0  0  0  0  0  0
  -38.7530   54.1272   70.3245 H   0  0  0  0  0  0  0  0  0  0  0  0
  -37.6730   54.9949   69.2095 H   0  0  0  0  0  0  0  0  0  0  0  0
  -39.4452   55.2323   67.6341 H   0  0  0  0  0  0  0  0  0  0  0  0
  -40.5371   54.3827   68.7515 H   0  0  0  0  0  0  0  0  0  0  0  0
  -39.2492   52.3914   68.5396 H   0  0  0  0  0  0  0  0  0  0  0  0
  -38.1443   53.2469   67.4296 H   0  0  0  0  0  0  0  0  0  0  0  0
  -39.8790   53.4680   65.8231 H   0  0  0  0  0  0  0  0  0  0  0  0
  -40.9996   52.6412   66.9266 H   0  0  0  0  0  0  0  0  0  0  0  0
  -38.5719   51.4320   65.6956 H   0  0  0  0  0  0  0  0  0  0  0  0
  -40.2659   51.1801   65.2007 H   0  0  0  0  0  0  0  0  0  0  0  0
  -39.1027   50.4080   67.8261 H   0  0  0  0  0  0  0  0  0  0  0  0
  -39.4426   49.3292   66.4628 H   0  0  0  0  0  0  0  0  0  0  0  0
  -41.4614   50.9061   67.9852 H   0  0  0  0  0  0  0  0  0  0  0  0
  -41.1830   49.1864   68.1190 H   0  0  0  0  0  0  0  0  0  0  0  0
  -41.7845   49.8602   66.6233 H   0  0  0  0  0  0  0  0  0  0  0  0
  1  4  1  0  0  0  0
  1 54  1  0  0  0  0
  1 55  1  0  0  0  0
  1 56  1  0  0  0  0
  2 29  2  0  0  0  0
  3  7  1  0  0  0  0
  3  9  2  1  0  0  0
  3 11  1  0  0  0  0
  3 13  1  0  0  0  0
  4  6  1  0  0  0  0
  4 57  1  0  0  0  0
  4 58  1  0  0  0  0
  5 29  1  0  0  0  0
  5 30  1  0  0  0  0
  6  8  1  0  0  0  0
  6 59  1  0  0  0  0
  6 60  1  0  0  0  0
  7 32  1  0  0  0  0
  8 10  1  0  0  0  0
  8 61  1  0  0  0  0
  8 62  1  0  0  0  0
 10 12  1  0  0  0  0
 10 63  1  0  0  0  0
 10 64  1  0  0  0  0
 11 65  1  0  0  0  0
 12 14  1  0  0  0  0
 12 66  1  0  0  0  0
 12 67  1  0  0  0  0
 13 33  1  0  0  0  0
 14 16  1  0  0  0  0
 14 68  1  0  0  0  0
 14 69  1  0  0  0  0
 15 35  1  0  0  0  0
 15 70  1  0  0  0  0
 16 18  1  0  0  0  0
 16 71  1  0  0  0  0
 16 72  1  0  0  0  0
 17 34  1  0  0  0  0
 17 73  1  0  0  0  0
 18 20  1  0  0  0  0
 18 74  1  0  0  0  0
 18 75  1  0  0  0  0
 19 31  1  0  0  0  0
 19 36  1  0  0  0  0
 20 22  1  0  0  0  0
 20 76  1  0  0  0  0
 20 77  1  0  0  0  0
 21 36  2  0  0  0  0
 22 23  1  0  0  0  0
 22 78  1  0  0  0  0
 22 79  1  0  0  0  0
 23 24  1  0  0  0  0
 23 80  1  0  0  0  0
 23 81  1  0  0  0  0
 24 25  1  0  0  0  0
 24 82  1  0  0  0  0
 24 83  1  0  0  0  0
 25 26  1  0  0  0  0
 25 84  1  0  0  0  0
 25 85  1  0  0  0  0
 26 27  1  0  0  0  0
 26 86  1  0  0  0  0
 26 87  1  0  0  0  0
 27 28  1  0  0  0  0
 27 88  1  0  0  0  0
 27 89  1  0  0  0  0
 28 29  1  0  0  0  0
 28 90  1  0  0  0  0
 28 91  1  0  0  0  0
 30 31  1  0  0  0  0
 30 92  1  0  0  0  0
 30 93  1  0  0  0  0
 31 32  1  0  0  0  0
 31 94  1  6  0  0  0
 32 95  1  0  0  0  0
 32 96  1  0  0  0  0
 33 34  1  0  0  0  0
 33 97  1  0  0  0  0
 33 98  1  0  0  0  0
 34 35  1  0  0  0  0
 34 99  1  6  0  0  0
 35100  1  0  0  0  0
 35101  1  0  0  0  0
 36 37  1  0  0  0  0
 37 38  1  0  0  0  0
 37102  1  0  0  0  0
 37103  1  0  0  0  0
 38 39  1  0  0  0  0
 38104  1  0  0  0  0
 38105  1  0  0  0  0
 39 40  1  0  0  0  0
 39106  1  0  0  0  0
 39107  1  0  0  0  0
 40 41  1  0  0  0  0
 40108  1  0  0  0  0
 40109  1  0  0  0  0
 41 42  1  0  0  0  0
 41110  1  0  0  0  0
 41111  1  0  0  0  0
 42 43  1  0  0  0  0
 42112  1  0  0  0  0
 42113  1  0  0  0  0
 43 44  1  0  0  0  0
 43114  1  0  0  0  0
 43115  1  0  0  0  0
 44 45  2  0  0  0  0
 44116  1  0  0  0  0
 45 46  1  0  0  0  0
 45117  1  0  0  0  0
 46 47  1  0  0  0  0
 46118  1  0  0  0  0
 46119  1  0  0  0  0
 47 48  1  0  0  0  0
 47120  1  0  0  0  0
 47121  1  0  0  0  0
 48 49  1  0  0  0  0
 48122  1  0  0  0  0
 48123  1  0  0  0  0
 49 50  1  0  0  0  0
 49124  1  0  0  0  0
 49125  1  0  0  0  0
 50 51  1  0  0  0  0
 50126  1  0  0  0  0
 50127  1  0  0  0  0
 51 52  1  0  0  0  0
 51128  1  0  0  0  0
 51129  1  0  0  0  0
 52 53  1  0  0  0  0
 52130  1  0  0  0  0
 52131  1  0  0  0  0
 53132  1  0  0  0  0
 53133  1  0  0  0  0
 53134  1  0  0  0  0
M  CHG  1   9  -1
M  END
$$$$