/media/chris/experiments/cd1a-new-docking/inputs/ligands/7sh4_ligand.pdb
 OpenBabel07012320073D

134133  0  0  1  0  0  0  0  0999 V2000
  -33.1275   71.0844   64.8002 C   0  0  0  0  0  0  0  0  0  0  0  0
  -34.4401   59.5252   63.8312 O   0  0  0  0  0  0  0  0  0  0  0  0
  -35.3336   62.9877   66.0786 P   0  0  1  0  0  0  0  0  0  0  0  0
  -31.7810   70.6722   64.2499 C   0  0  0  0  0  0  0  0  0  0  0  0
  -36.1511   59.3213   62.4064 O   0  0  0  0  0  0  0  0  0  0  0  0
  -31.3367   71.5469   63.0929 C   0  0  0  0  0  0  0  0  0  0  0  0
  -36.4293   62.0282   65.4148 O   0  0  0  0  0  0  0  0  0  0  0  0
  -32.2797   71.5541   61.9031 C   0  0  0  0  0  0  0  0  0  0  0  0
  -34.0856   62.8690   65.2943 O   0  5  0  0  0  0  0  0  0  0  0  0
  -33.6743   72.0672   62.2339 C   0  0  0  0  0  0  0  0  0  0  0  0
  -35.9402   64.3294   66.2534 O   0  0  0  0  0  0  0  0  0  0  0  0
  -34.6209   72.0587   61.0511 C   0  0  0  0  0  0  0  0  0  0  0  0
  -35.0625   62.3801   67.5278 O   0  0  0  0  0  0  0  0  0  0  0  0
  -34.8498   70.6757   60.4722 C   0  0  0  0  0  0  0  0  0  0  0  0
  -34.1076   62.0053   71.6193 O   0  0  0  0  0  0  0  0  0  0  0  0
  -35.4633   69.6862   61.4562 C   0  0  0  0  0  0  0  0  0  0  0  0
  -35.0177   60.3939   69.4737 O   0  0  0  0  0  0  0  0  0  0  0  0
  -35.6748   68.3017   60.8801 C   0  0  0  0  0  0  0  0  0  0  0  0
  -38.2720   59.8520   65.2990 O   0  0  0  0  0  0  0  0  0  0  0  0
  -34.4011   67.6226   60.4192 C   0  0  0  0  0  0  0  0  0  0  0  0
  -40.2187   60.6541   64.5071 O   0  0  0  0  0  0  0  0  0  0  0  0
  -33.4056   67.4246   61.5408 C   0  0  0  0  0  0  0  0  0  0  0  0
  -33.9286   66.5619   62.6587 C   0  0  0  0  0  0  0  0  0  0  0  0
  -34.2903   65.1678   62.2079 C   0  0  0  0  0  0  0  0  0  0  0  0
  -33.1145   64.4021   61.6358 C   0  0  0  0  0  0  0  0  0  0  0  0
  -33.4836   63.0120   61.1696 C   0  0  0  0  0  0  0  0  0  0  0  0
  -34.0562   62.1254   62.2552 C   0  0  0  0  0  0  0  0  0  0  0  0
  -34.3998   60.7320   61.7564 C   0  0  0  0  0  0  0  0  0  0  0  0
  -34.9861   59.8321   62.8059 C   0  0  0  0  0  0  0  0  0  0  0  0
  -37.0720   58.9080   63.4380 C   0  0  0  0  0  0  0  0  0  0  0  0
  -37.3490   60.1700   64.2050 C   0  0  2  0  0  0  0  0  0  0  0  0
  -36.0840   60.8130   64.7130 C   0  0  0  0  0  0  0  0  0  0  0  0
  -36.1454   62.2562   68.4724 C   0  0  0  0  0  0  0  0  0  0  0  0
  -35.5968   61.6725   69.7511 C   0  0  2  0  0  0  0  0  0  0  0  0
  -34.5780   62.5752   70.4045 C   0  0  0  0  0  0  0  0  0  0  0  0
  -39.5790   59.7587   64.9875 C   0  0  0  0  0  0  0  0  0  0  0  0
  -40.1328   58.4017   65.2941 C   0  0  0  0  0  0  0  0  0  0  0  0
  -39.0633   57.3210   65.1719 C   0  0  0  0  0  0  0  0  0  0  0  0
  -39.5709   55.9167   65.4556 C   0  0  0  0  0  0  0  0  0  0  0  0
  -38.4921   54.8451   65.3478 C   0  0  0  0  0  0  0  0  0  0  0  0
  -37.8346   54.7667   63.9826 C   0  0  0  0  0  0  0  0  0  0  0  0
  -37.1190   56.0482   63.5460 C   0  0  0  0  0  0  0  0  0  0  0  0
  -36.4650   55.9907   62.1638 C   0  0  0  0  0  0  0  0  0  0  0  0
  -35.7712   57.2728   61.8133 C   0  0  0  0  0  0  0  0  0  0  0  0
  -36.0351   58.0553   60.7850 C   0  0  0  0  0  0  0  0  0  0  0  0
  -37.0895   57.8255   59.7487 C   0  0  0  0  0  0  0  0  0  0  0  0
  -38.4927   57.7776   60.3463 C   0  0  0  0  0  0  0  0  0  0  0  0
  -38.9002   59.0608   61.0489 C   0  0  0  0  0  0  0  0  0  0  0  0
  -40.2904   59.0073   61.6585 C   0  0  0  0  0  0  0  0  0  0  0  0
  -41.4047   58.7326   60.6623 C   0  0  0  0  0  0  0  0  0  0  0  0
  -42.7879   58.7008   61.2944 C   0  0  0  0  0  0  0  0  0  0  0  0
  -43.9112   58.4112   60.3186 C   0  0  0  0  0  0  0  0  0  0  0  0
  -43.7689   57.0731   59.6486 C   0  0  0  0  0  0  0  0  0  0  0  0
  -33.3942   70.4389   65.6109 H   0  0  0  0  0  0  0  0  0  0  0  0
  -33.8655   71.0119   64.0289 H   0  0  0  0  0  0  0  0  0  0  0  0
  -33.0757   72.0941   65.1505 H   0  0  0  0  0  0  0  0  0  0  0  0
  -31.8440   69.6594   63.9105 H   0  0  0  0  0  0  0  0  0  0  0  0
  -31.0614   70.7788   65.0345 H   0  0  0  0  0  0  0  0  0  0  0  0
  -30.3818   71.1981   62.7591 H   0  0  0  0  0  0  0  0  0  0  0  0
  -31.3125   72.5499   63.4649 H   0  0  0  0  0  0  0  0  0  0  0  0
  -32.3662   70.5535   61.5339 H   0  0  0  0  0  0  0  0  0  0  0  0
  -31.8639   72.2211   61.1771 H   0  0  0  0  0  0  0  0  0  0  0  0
  -33.5888   73.0720   62.5915 H   0  0  0  0  0  0  0  0  0  0  0  0
  -34.0850   71.4068   62.9688 H   0  0  0  0  0  0  0  0  0  0  0  0
  -36.1151   64.7210   65.3834 H   0  0  0  0  0  0  0  0  0  0  0  0
  -34.2119   72.6837   60.2849 H   0  0  0  0  0  0  0  0  0  0  0  0
  -35.5671   72.4149   61.4015 H   0  0  0  0  0  0  0  0  0  0  0  0
  -33.9075   70.2868   60.1472 H   0  0  0  0  0  0  0  0  0  0  0  0
  -35.5481   70.7876   59.6692 H   0  0  0  0  0  0  0  0  0  0  0  0
  -33.4553   62.5987   72.0235 H   0  0  0  0  0  0  0  0  0  0  0  0
  -36.4115   70.0685   61.7719 H   0  0  0  0  0  0  0  0  0  0  0  0
  -34.7722   69.5838   62.2666 H   0  0  0  0  0  0  0  0  0  0  0  0
  -35.6804   59.8229   69.0546 H   0  0  0  0  0  0  0  0  0  0  0  0
  -36.3343   68.3839   60.0415 H   0  0  0  0  0  0  0  0  0  0  0  0
  -36.0792   67.6988   61.6661 H   0  0  0  0  0  0  0  0  0  0  0  0
  -33.9469   68.2255   59.6609 H   0  0  0  0  0  0  0  0  0  0  0  0
  -34.6671   66.6546   60.0488 H   0  0  0  0  0  0  0  0  0  0  0  0
  -33.1521   68.3834   61.9424 H   0  0  0  0  0  0  0  0  0  0  0  0
  -32.5568   66.9231   61.1251 H   0  0  0  0  0  0  0  0  0  0  0  0
  -34.8021   67.0255   63.0672 H   0  0  0  0  0  0  0  0  0  0  0  0
  -33.1480   66.4711   63.3848 H   0  0  0  0  0  0  0  0  0  0  0  0
  -35.0480   65.2393   61.4558 H   0  0  0  0  0  0  0  0  0  0  0  0
  -34.6294   64.6325   63.0701 H   0  0  0  0  0  0  0  0  0  0  0  0
  -32.3616   64.3192   62.3916 H   0  0  0  0  0  0  0  0  0  0  0  0
  -32.7658   64.9436   60.7814 H   0  0  0  0  0  0  0  0  0  0  0  0
  -32.6031   62.5429   60.7827 H   0  0  0  0  0  0  0  0  0  0  0  0
  -34.2495   63.1284   60.4315 H   0  0  0  0  0  0  0  0  0  0  0  0
  -34.9463   62.5817   62.6353 H   0  0  0  0  0  0  0  0  0  0  0  0
  -33.3089   62.0210   63.0138 H   0  0  0  0  0  0  0  0  0  0  0  0
  -33.5047   60.2775   61.3860 H   0  0  0  0  0  0  0  0  0  0  0  0
  -35.1468   60.8508   60.9996 H   0  0  0  0  0  0  0  0  0  0  0  0
  -36.6274   58.1683   64.0706 H   0  0  0  0  0  0  0  0  0  0  0  0
  -37.9610   58.4631   63.0423 H   0  0  0  0  0  0  0  0  0  0  0  0
  -37.7985   60.8886   63.5519 H   0  0  0  0  0  0  0  0  0  0  0  0
  -35.5824   60.1428   65.3795 H   0  0  0  0  0  0  0  0  0  0  0  0
  -35.4356   61.0386   63.8923 H   0  0  0  0  0  0  0  0  0  0  0  0
  -36.8999   61.6101   68.0746 H   0  0  0  0  0  0  0  0  0  0  0  0
  -36.5793   63.2156   68.6624 H   0  0  0  0  0  0  0  0  0  0  0  0
  -36.4082   61.5692   70.4409 H   0  0  0  0  0  0  0  0  0  0  0  0
  -33.7522   62.7131   69.7382 H   0  0  0  0  0  0  0  0  0  0  0  0
  -35.0404   63.5153   70.6219 H   0  0  0  0  0  0  0  0  0  0  0  0
  -40.9250   58.1862   64.6079 H   0  0  0  0  0  0  0  0  0  0  0  0
  -40.4925   58.4057   66.3019 H   0  0  0  0  0  0  0  0  0  0  0  0
  -38.2797   57.5425   65.8659 H   0  0  0  0  0  0  0  0  0  0  0  0
  -38.7274   57.3302   64.1560 H   0  0  0  0  0  0  0  0  0  0  0  0
  -40.3456   55.6887   64.7537 H   0  0  0  0  0  0  0  0  0  0  0  0
  -39.9223   55.9081   66.4662 H   0  0  0  0  0  0  0  0  0  0  0  0
  -38.9379   53.8961   65.5616 H   0  0  0  0  0  0  0  0  0  0  0  0
  -37.7250   55.1065   66.0465 H   0  0  0  0  0  0  0  0  0  0  0  0
  -38.5914   54.5440   63.2598 H   0  0  0  0  0  0  0  0  0  0  0  0
  -37.0834   54.0077   64.0506 H   0  0  0  0  0  0  0  0  0  0  0  0
  -36.3558   56.2624   64.2646 H   0  0  0  0  0  0  0  0  0  0  0  0
  -37.8740   56.8041   63.4860 H   0  0  0  0  0  0  0  0  0  0  0  0
  -37.2214   55.7967   61.4322 H   0  0  0  0  0  0  0  0  0  0  0  0
  -35.7306   55.2126   62.1793 H   0  0  0  0  0  0  0  0  0  0  0  0
  -35.0093   57.5738   62.4409 H   0  0  0  0  0  0  0  0  0  0  0  0
  -35.4600   58.9064   60.6858 H   0  0  0  0  0  0  0  0  0  0  0  0
  -36.8928   56.8948   59.2589 H   0  0  0  0  0  0  0  0  0  0  0  0
  -37.0556   58.6453   59.0619 H   0  0  0  0  0  0  0  0  0  0  0  0
  -38.5309   56.9772   61.0555 H   0  0  0  0  0  0  0  0  0  0  0  0
  -39.1744   57.6353   59.5339 H   0  0  0  0  0  0  0  0  0  0  0  0
  -38.8740   59.8589   60.3367 H   0  0  0  0  0  0  0  0  0  0  0  0
  -38.2110   59.2095   61.8537 H   0  0  0  0  0  0  0  0  0  0  0  0
  -40.4861   59.9488   62.1277 H   0  0  0  0  0  0  0  0  0  0  0  0
  -40.2894   58.1889   62.3478 H   0  0  0  0  0  0  0  0  0  0  0  0
  -41.2209   57.7846   60.2013 H   0  0  0  0  0  0  0  0  0  0  0  0
  -41.3998   59.5351   59.9547 H   0  0  0  0  0  0  0  0  0  0  0  0
  -42.9725   59.6534   61.7453 H   0  0  0  0  0  0  0  0  0  0  0  0
  -42.7831   57.8998   62.0038 H   0  0  0  0  0  0  0  0  0  0  0  0
  -43.9152   59.1719   59.5661 H   0  0  0  0  0  0  0  0  0  0  0  0
  -44.8256   58.3983   60.8741 H   0  0  0  0  0  0  0  0  0  0  0  0
  -42.8611   57.0524   59.0826 H   0  0  0  0  0  0  0  0  0  0  0  0
  -44.6005   56.9113   58.9950 H   0  0  0  0  0  0  0  0  0  0  0  0
  -43.7438   56.3032   60.3913 H   0  0  0  0  0  0  0  0  0  0  0  0
  1  4  1  0  0  0  0
  1 54  1  0  0  0  0
  1 55  1  0  0  0  0
  1 56  1  0  0  0  0
  2 29  2  0  0  0  0
  3  7  1  0  0  0  0
  3  9  2  6  0  0  0
  3 11  1  0  0  0  0
  3 13  1  0  0  0  0
  4  6  1  0  0  0  0
  4 57  1  0  0  0  0
  4 58  1  0  0  0  0
  5 29  1  0  0  0  0
  5 30  1  0  0  0  0
  6  8  1  0  0  0  0
  6 59  1  0  0  0  0
  6 60  1  0  0  0  0
  7 32  1  0  0  0  0
  8 10  1  0  0  0  0
  8 61  1  0  0  0  0
  8 62  1  0  0  0  0
 10 12  1  0  0  0  0
 10 63  1  0  0  0  0
 10 64  1  0  0  0  0
 11 65  1  0  0  0  0
 12 14  1  0  0  0  0
 12 66  1  0  0  0  0
 12 67  1  0  0  0  0
 13 33  1  0  0  0  0
 14 16  1  0  0  0  0
 14 68  1  0  0  0  0
 14 69  1  0  0  0  0
 15 35  1  0  0  0  0
 15 70  1  0  0  0  0
 16 18  1  0  0  0  0
 16 71  1  0  0  0  0
 16 72  1  0  0  0  0
 17 34  1  0  0  0  0
 17 73  1  0  0  0  0
 18 20  1  0  0  0  0
 18 74  1  0  0  0  0
 18 75  1  0  0  0  0
 19 31  1  0  0  0  0
 19 36  1  0  0  0  0
 20 22  1  0  0  0  0
 20 76  1  0  0  0  0
 20 77  1  0  0  0  0
 21 36  2  0  0  0  0
 22 23  1  0  0  0  0
 22 78  1  0  0  0  0
 22 79  1  0  0  0  0
 23 24  1  0  0  0  0
 23 80  1  0  0  0  0
 23 81  1  0  0  0  0
 24 25  1  0  0  0  0
 24 82  1  0  0  0  0
 24 83  1  0  0  0  0
 25 26  1  0  0  0  0
 25 84  1  0  0  0  0
 25 85  1  0  0  0  0
 26 27  1  0  0  0  0
 26 86  1  0  0  0  0
 26 87  1  0  0  0  0
 27 28  1  0  0  0  0
 27 88  1  0  0  0  0
 27 89  1  0  0  0  0
 28 29  1  0  0  0  0
 28 90  1  0  0  0  0
 28 91  1  0  0  0  0
 30 31  1  0  0  0  0
 30 92  1  0  0  0  0
 30 93  1  0  0  0  0
 31 32  1  0  0  0  0
 31 94  1  6  0  0  0
 32 95  1  0  0  0  0
 32 96  1  0  0  0  0
 33 34  1  0  0  0  0
 33 97  1  0  0  0  0
 33 98  1  0  0  0  0
 34 35  1  0  0  0  0
 34 99  1  1  0  0  0
 35100  1  0  0  0  0
 35101  1  0  0  0  0
 36 37  1  0  0  0  0
 37 38  1  0  0  0  0
 37102  1  0  0  0  0
 37103  1  0  0  0  0
 38 39  1  0  0  0  0
 38104  1  0  0  0  0
 38105  1  0  0  0  0
 39 40  1  0  0  0  0
 39106  1  0  0  0  0
 39107  1  0  0  0  0
 40 41  1  0  0  0  0
 40108  1  0  0  0  0
 40109  1  0  0  0  0
 41 42  1  0  0  0  0
 41110  1  0  0  0  0
 41111  1  0  0  0  0
 42 43  1  0  0  0  0
 42112  1  0  0  0  0
 42113  1  0  0  0  0
 43 44  1  0  0  0  0
 43114  1  0  0  0  0
 43115  1  0  0  0  0
 44 45  2  0  0  0  0
 44116  1  0  0  0  0
 45 46  1  0  0  0  0
 45117  1  0  0  0  0
 46 47  1  0  0  0  0
 46118  1  0  0  0  0
 46119  1  0  0  0  0
 47 48  1  0  0  0  0
 47120  1  0  0  0  0
 47121  1  0  0  0  0
 48 49  1  0  0  0  0
 48122  1  0  0  0  0
 48123  1  0  0  0  0
 49 50  1  0  0  0  0
 49124  1  0  0  0  0
 49125  1  0  0  0  0
 50 51  1  0  0  0  0
 50126  1  0  0  0  0
 50127  1  0  0  0  0
 51 52  1  0  0  0  0
 51128  1  0  0  0  0
 51129  1  0  0  0  0
 52 53  1  0  0  0  0
 52130  1  0  0  0  0
 52131  1  0  0  0  0
 53132  1  0  0  0  0
 53133  1  0  0  0  0
 53134  1  0  0  0  0
M  CHG  1   9  -1
M  END
$$$$