/media/chris/experiments/cd1a-new-docking/inputs/ligands/7sh4_ligand.pdb
 OpenBabel07012320073D

134133  0  0  1  0  0  0  0  0999 V2000
  -41.6357   65.0671   62.7637 C   0  0  0  0  0  0  0  0  0  0  0  0
  -34.6172   57.8911   63.1815 O   0  0  0  0  0  0  0  0  0  0  0  0
  -35.3336   62.9877   66.0786 P   0  0  1  0  0  0  0  0  0  0  0  0
  -42.5372   65.2885   61.5703 C   0  0  0  0  0  0  0  0  0  0  0  0
  -36.1511   59.3213   62.4064 O   0  0  0  0  0  0  0  0  0  0  0  0
  -43.3321   64.0484   61.2080 C   0  0  0  0  0  0  0  0  0  0  0  0
  -36.4293   62.0282   65.4148 O   0  0  0  0  0  0  0  0  0  0  0  0
  -44.2607   63.5474   62.2998 C   0  0  0  0  0  0  0  0  0  0  0  0
  -35.1229   62.5455   67.4739 O   0  5  0  0  0  0  0  0  0  0  0  0
  -45.0325   62.2929   61.9150 C   0  0  0  0  0  0  0  0  0  0  0  0
  -34.1652   63.0533   65.1681 O   0  0  0  0  0  0  0  0  0  0  0  0
  -44.1447   61.1068   61.5984 C   0  0  0  0  0  0  0  0  0  0  0  0
  -36.0060   64.4330   66.1178 O   0  0  0  0  0  0  0  0  0  0  0  0
  -43.2741   60.6777   62.7637 C   0  0  0  0  0  0  0  0  0  0  0  0
  -39.8279   62.8261   66.4236 O   0  0  0  0  0  0  0  0  0  0  0  0
  -42.3629   59.4955   62.4537 C   0  0  0  0  0  0  0  0  0  0  0  0
  -38.6935   64.2695   68.5819 O   0  0  0  0  0  0  0  0  0  0  0  0
  -41.3790   59.7586   61.3330 C   0  0  0  0  0  0  0  0  0  0  0  0
  -38.2720   59.8520   65.2990 O   0  0  0  0  0  0  0  0  0  0  0  0
  -40.4216   60.9010   61.6062 C   0  0  0  0  0  0  0  0  0  0  0  0
  -39.8075   59.1219   63.8261 O   0  0  0  0  0  0  0  0  0  0  0  0
  -39.4647   61.1479   60.4611 C   0  0  0  0  0  0  0  0  0  0  0  0
  -38.4950   62.2697   60.7238 C   0  0  0  0  0  0  0  0  0  0  0  0
  -37.5557   62.5197   59.5694 C   0  0  0  0  0  0  0  0  0  0  0  0
  -36.7151   61.3107   59.2118 C   0  0  0  0  0  0  0  0  0  0  0  0
  -35.8539   60.8288   60.3572 C   0  0  0  0  0  0  0  0  0  0  0  0
  -34.9902   59.6311   60.0224 C   0  0  0  0  0  0  0  0  0  0  0  0
  -34.1515   59.1632   61.1998 C   0  0  0  0  0  0  0  0  0  0  0  0
  -34.9553   58.7317   62.3924 C   0  0  0  0  0  0  0  0  0  0  0  0
  -37.0720   58.9080   63.4380 C   0  0  0  0  0  0  0  0  0  0  0  0
  -37.3490   60.1700   64.2050 C   0  0  2  0  0  0  0  0  0  0  0  0
  -36.0840   60.8130   64.7130 C   0  0  0  0  0  0  0  0  0  0  0  0
  -36.7717   64.8416   67.2697 C   0  0  0  0  0  0  0  0  0  0  0  0
  -37.9120   63.8703   67.4519 C   0  0  2  0  0  0  0  0  0  0  0  0
  -38.7846   63.7712   66.2237 C   0  0  0  0  0  0  0  0  0  0  0  0
  -39.4672   59.3329   64.9581 C   0  0  0  0  0  0  0  0  0  0  0  0
  -40.3113   59.0340   66.1581 C   0  0  0  0  0  0  0  0  0  0  0  0
  -41.2417   57.8517   65.9066 C   0  0  0  0  0  0  0  0  0  0  0  0
  -42.1979   58.0566   64.7431 C   0  0  0  0  0  0  0  0  0  0  0  0
  -43.1353   56.8774   64.5094 C   0  0  0  0  0  0  0  0  0  0  0  0
  -44.0828   57.0651   63.3391 C   0  0  0  0  0  0  0  0  0  0  0  0
  -45.0061   58.2812   63.4561 C   0  0  0  0  0  0  0  0  0  0  0  0
  -45.9795   58.4746   62.2914 C   0  0  0  0  0  0  0  0  0  0  0  0
  -46.8368   59.6919   62.4679 C   0  0  0  0  0  0  0  0  0  0  0  0
  -46.9013   60.7333   61.6612 C   0  0  0  0  0  0  0  0  0  0  0  0
  -46.1286   60.9168   60.3932 C   0  0  0  0  0  0  0  0  0  0  0  0
  -46.8854   61.7539   59.3661 C   0  0  0  0  0  0  0  0  0  0  0  0
  -48.2247   61.1614   58.9644 C   0  0  0  0  0  0  0  0  0  0  0  0
  -49.1972   61.0119   60.1217 C   0  0  0  0  0  0  0  0  0  0  0  0
  -50.5379   60.4047   59.7431 C   0  0  0  0  0  0  0  0  0  0  0  0
  -51.4994   60.2813   60.9152 C   0  0  0  0  0  0  0  0  0  0  0  0
  -52.8367   59.6620   60.5602 C   0  0  0  0  0  0  0  0  0  0  0  0
  -52.7061   58.2626   60.0270 C   0  0  0  0  0  0  0  0  0  0  0  0
  -41.0993   65.9679   62.9775 H   0  0  0  0  0  0  0  0  0  0  0  0
  -40.9421   64.2821   62.5459 H   0  0  0  0  0  0  0  0  0  0  0  0
  -42.2278   64.7947   63.6123 H   0  0  0  0  0  0  0  0  0  0  0  0
  -41.9345   65.5675   60.7315 H   0  0  0  0  0  0  0  0  0  0  0  0
  -43.2339   66.0592   61.8263 H   0  0  0  0  0  0  0  0  0  0  0  0
  -42.6407   63.2661   60.9738 H   0  0  0  0  0  0  0  0  0  0  0  0
  -43.9561   64.3205   60.3824 H   0  0  0  0  0  0  0  0  0  0  0  0
  -44.9641   64.3210   62.5270 H   0  0  0  0  0  0  0  0  0  0  0  0
  -43.6489   63.2941   63.1403 H   0  0  0  0  0  0  0  0  0  0  0  0
  -45.6249   62.5120   61.0513 H   0  0  0  0  0  0  0  0  0  0  0  0
  -45.6296   62.0207   62.7602 H   0  0  0  0  0  0  0  0  0  0  0  0
  -33.7378   62.1835   65.1272 H   0  0  0  0  0  0  0  0  0  0  0  0
  -43.5090   61.3684   60.7784 H   0  0  0  0  0  0  0  0  0  0  0  0
  -44.7880   60.2843   61.3652 H   0  0  0  0  0  0  0  0  0  0  0  0
  -43.9122   60.4062   63.5786 H   0  0  0  0  0  0  0  0  0  0  0  0
  -42.6383   61.5061   62.9970 H   0  0  0  0  0  0  0  0  0  0  0  0
  -40.3767   62.7766   65.6253 H   0  0  0  0  0  0  0  0  0  0  0  0
  -42.9742   58.6621   62.1769 H   0  0  0  0  0  0  0  0  0  0  0  0
  -41.7871   59.3065   63.3355 H   0  0  0  0  0  0  0  0  0  0  0  0
  -38.1233   64.3299   69.3643 H   0  0  0  0  0  0  0  0  0  0  0  0
  -41.9326   59.9887   60.4468 H   0  0  0  0  0  0  0  0  0  0  0  0
  -40.7841   58.8751   61.2307 H   0  0  0  0  0  0  0  0  0  0  0  0
  -39.8537   60.6693   62.4829 H   0  0  0  0  0  0  0  0  0  0  0  0
  -41.0059   61.7880   61.7358 H   0  0  0  0  0  0  0  0  0  0  0  0
  -40.0349   61.3898   59.5886 H   0  0  0  0  0  0  0  0  0  0  0  0
  -38.8884   60.2556   60.3328 H   0  0  0  0  0  0  0  0  0  0  0  0
  -37.9147   62.0233   61.5883 H   0  0  0  0  0  0  0  0  0  0  0  0
  -39.0686   63.1613   60.8685 H   0  0  0  0  0  0  0  0  0  0  0  0
  -36.9006   63.3239   59.8319 H   0  0  0  0  0  0  0  0  0  0  0  0
  -38.1564   62.7534   58.7153 H   0  0  0  0  0  0  0  0  0  0  0  0
  -36.0781   61.5691   58.3918 H   0  0  0  0  0  0  0  0  0  0  0  0
  -37.3874   60.5169   58.9615 H   0  0  0  0  0  0  0  0  0  0  0  0
  -36.4958   60.5627   61.1709 H   0  0  0  0  0  0  0  0  0  0  0  0
  -35.1879   61.6303   60.5998 H   0  0  0  0  0  0  0  0  0  0  0  0
  -34.3346   59.8960   59.2194 H   0  0  0  0  0  0  0  0  0  0  0  0
  -35.6435   58.8278   59.7526 H   0  0  0  0  0  0  0  0  0  0  0  0
  -33.5129   59.9682   61.4984 H   0  0  0  0  0  0  0  0  0  0  0  0
  -33.6062   58.3043   60.8681 H   0  0  0  0  0  0  0  0  0  0  0  0
  -36.6274   58.1683   64.0706 H   0  0  0  0  0  0  0  0  0  0  0  0
  -37.9610   58.4631   63.0423 H   0  0  0  0  0  0  0  0  0  0  0  0
  -37.7985   60.8886   63.5519 H   0  0  0  0  0  0  0  0  0  0  0  0
  -35.5824   60.1428   65.3795 H   0  0  0  0  0  0  0  0  0  0  0  0
  -35.4356   61.0386   63.8923 H   0  0  0  0  0  0  0  0  0  0  0  0
  -37.1578   65.8276   67.1158 H   0  0  0  0  0  0  0  0  0  0  0  0
  -36.1506   64.8475   68.1410 H   0  0  0  0  0  0  0  0  0  0  0  0
  -37.4944   62.8988   67.6156 H   0  0  0  0  0  0  0  0  0  0  0  0
  -39.2134   64.7299   66.0192 H   0  0  0  0  0  0  0  0  0  0  0  0
  -38.1829   63.4502   65.3991 H   0  0  0  0  0  0  0  0  0  0  0  0
  -40.9002   59.8961   66.3925 H   0  0  0  0  0  0  0  0  0  0  0  0
  -39.6624   58.7836   66.9712 H   0  0  0  0  0  0  0  0  0  0  0  0
  -41.8191   57.6833   66.7915 H   0  0  0  0  0  0  0  0  0  0  0  0
  -40.6215   57.0167   65.6553 H   0  0  0  0  0  0  0  0  0  0  0  0
  -41.6217   58.2120   63.8549 H   0  0  0  0  0  0  0  0  0  0  0  0
  -42.8093   58.9009   64.9841 H   0  0  0  0  0  0  0  0  0  0  0  0
  -43.7186   56.7307   65.3944 H   0  0  0  0  0  0  0  0  0  0  0  0
  -42.5197   56.0337   64.2772 H   0  0  0  0  0  0  0  0  0  0  0  0
  -44.6926   56.1894   63.2595 H   0  0  0  0  0  0  0  0  0  0  0  0
  -43.4712   57.2300   62.4768 H   0  0  0  0  0  0  0  0  0  0  0  0
  -44.3939   59.1561   63.5246 H   0  0  0  0  0  0  0  0  0  0  0  0
  -45.6101   58.1131   64.3231 H   0  0  0  0  0  0  0  0  0  0  0  0
  -46.6120   57.6142   62.2240 H   0  0  0  0  0  0  0  0  0  0  0  0
  -45.4034   58.6044   61.3990 H   0  0  0  0  0  0  0  0  0  0  0  0
  -47.4379   59.7175   63.3064 H   0  0  0  0  0  0  0  0  0  0  0  0
  -47.5456   61.4933   61.9299 H   0  0  0  0  0  0  0  0  0  0  0  0
  -45.9277   59.9543   59.9711 H   0  0  0  0  0  0  0  0  0  0  0  0
  -45.2247   61.4359   60.6346 H   0  0  0  0  0  0  0  0  0  0  0  0
  -46.2785   61.8429   58.4894 H   0  0  0  0  0  0  0  0  0  0  0  0
  -47.0860   62.7014   59.8210 H   0  0  0  0  0  0  0  0  0  0  0  0
  -48.0527   60.1941   58.5404 H   0  0  0  0  0  0  0  0  0  0  0  0
  -48.6703   61.8393   58.2667 H   0  0  0  0  0  0  0  0  0  0  0  0
  -49.3748   61.9820   60.5366 H   0  0  0  0  0  0  0  0  0  0  0  0
  -48.7424   60.3369   60.8163 H   0  0  0  0  0  0  0  0  0  0  0  0
  -50.3662   59.4279   59.3413 H   0  0  0  0  0  0  0  0  0  0  0  0
  -50.9916   61.0618   59.0309 H   0  0  0  0  0  0  0  0  0  0  0  0
  -51.6771   61.2607   61.3078 H   0  0  0  0  0  0  0  0  0  0  0  0
  -51.0367   59.6275   61.6246 H   0  0  0  0  0  0  0  0  0  0  0  0
  -53.3080   60.2691   59.8158 H   0  0  0  0  0  0  0  0  0  0  0  0
  -53.4176   59.6125   61.4574 H   0  0  0  0  0  0  0  0  0  0  0  0
  -52.1284   58.2764   59.1265 H   0  0  0  0  0  0  0  0  0  0  0  0
  -53.6788   57.8673   59.8207 H   0  0  0  0  0  0  0  0  0  0  0  0
  -52.2182   57.6478   60.7543 H   0  0  0  0  0  0  0  0  0  0  0  0
  1  4  1  0  0  0  0
  1 54  1  0  0  0  0
  1 55  1  0  0  0  0
  1 56  1  0  0  0  0
  2 29  2  0  0  0  0
  3  7  1  0  0  0  0
  3  9  2  1  0  0  0
  3 11  1  0  0  0  0
  3 13  1  0  0  0  0
  4  6  1  0  0  0  0
  4 57  1  0  0  0  0
  4 58  1  0  0  0  0
  5 29  1  0  0  0  0
  5 30  1  0  0  0  0
  6  8  1  0  0  0  0
  6 59  1  0  0  0  0
  6 60  1  0  0  0  0
  7 32  1  0  0  0  0
  8 10  1  0  0  0  0
  8 61  1  0  0  0  0
  8 62  1  0  0  0  0
 10 12  1  0  0  0  0
 10 63  1  0  0  0  0
 10 64  1  0  0  0  0
 11 65  1  0  0  0  0
 12 14  1  0  0  0  0
 12 66  1  0  0  0  0
 12 67  1  0  0  0  0
 13 33  1  0  0  0  0
 14 16  1  0  0  0  0
 14 68  1  0  0  0  0
 14 69  1  0  0  0  0
 15 35  1  0  0  0  0
 15 70  1  0  0  0  0
 16 18  1  0  0  0  0
 16 71  1  0  0  0  0
 16 72  1  0  0  0  0
 17 34  1  0  0  0  0
 17 73  1  0  0  0  0
 18 20  1  0  0  0  0
 18 74  1  0  0  0  0
 18 75  1  0  0  0  0
 19 31  1  0  0  0  0
 19 36  1  0  0  0  0
 20 22  1  0  0  0  0
 20 76  1  0  0  0  0
 20 77  1  0  0  0  0
 21 36  2  0  0  0  0
 22 23  1  0  0  0  0
 22 78  1  0  0  0  0
 22 79  1  0  0  0  0
 23 24  1  0  0  0  0
 23 80  1  0  0  0  0
 23 81  1  0  0  0  0
 24 25  1  0  0  0  0
 24 82  1  0  0  0  0
 24 83  1  0  0  0  0
 25 26  1  0  0  0  0
 25 84  1  0  0  0  0
 25 85  1  0  0  0  0
 26 27  1  0  0  0  0
 26 86  1  0  0  0  0
 26 87  1  0  0  0  0
 27 28  1  0  0  0  0
 27 88  1  0  0  0  0
 27 89  1  0  0  0  0
 28 29  1  0  0  0  0
 28 90  1  0  0  0  0
 28 91  1  0  0  0  0
 30 31  1  0  0  0  0
 30 92  1  0  0  0  0
 30 93  1  0  0  0  0
 31 32  1  0  0  0  0
 31 94  1  6  0  0  0
 32 95  1  0  0  0  0
 32 96  1  0  0  0  0
 33 34  1  0  0  0  0
 33 97  1  0  0  0  0
 33 98  1  0  0  0  0
 34 35  1  0  0  0  0
 34 99  1  1  0  0  0
 35100  1  0  0  0  0
 35101  1  0  0  0  0
 36 37  1  0  0  0  0
 37 38  1  0  0  0  0
 37102  1  0  0  0  0
 37103  1  0  0  0  0
 38 39  1  0  0  0  0
 38104  1  0  0  0  0
 38105  1  0  0  0  0
 39 40  1  0  0  0  0
 39106  1  0  0  0  0
 39107  1  0  0  0  0
 40 41  1  0  0  0  0
 40108  1  0  0  0  0
 40109  1  0  0  0  0
 41 42  1  0  0  0  0
 41110  1  0  0  0  0
 41111  1  0  0  0  0
 42 43  1  0  0  0  0
 42112  1  0  0  0  0
 42113  1  0  0  0  0
 43 44  1  0  0  0  0
 43114  1  0  0  0  0
 43115  1  0  0  0  0
 44 45  2  0  0  0  0
 44116  1  0  0  0  0
 45 46  1  0  0  0  0
 45117  1  0  0  0  0
 46 47  1  0  0  0  0
 46118  1  0  0  0  0
 46119  1  0  0  0  0
 47 48  1  0  0  0  0
 47120  1  0  0  0  0
 47121  1  0  0  0  0
 48 49  1  0  0  0  0
 48122  1  0  0  0  0
 48123  1  0  0  0  0
 49 50  1  0  0  0  0
 49124  1  0  0  0  0
 49125  1  0  0  0  0
 50 51  1  0  0  0  0
 50126  1  0  0  0  0
 50127  1  0  0  0  0
 51 52  1  0  0  0  0
 51128  1  0  0  0  0
 51129  1  0  0  0  0
 52 53  1  0  0  0  0
 52130  1  0  0  0  0
 52131  1  0  0  0  0
 53132  1  0  0  0  0
 53133  1  0  0  0  0
 53134  1  0  0  0  0
M  CHG  1   9  -1
M  END
$$$$