/media/chris/experiments/cd1a-new-docking/inputs/ligands/7sh4_ligand.pdb
 OpenBabel07012320073D

134133  0  0  1  0  0  0  0  0999 V2000
  -43.8713   67.9877   67.3415 C   0  0  0  0  0  0  0  0  0  0  0  0
  -37.6389   58.6496   60.8423 O   0  0  0  0  0  0  0  0  0  0  0  0
  -34.0491   60.2433   66.3537 P   0  0  1  0  0  0  0  0  0  0  0  0
  -43.9775   66.5742   67.8673 C   0  0  0  0  0  0  0  0  0  0  0  0
  -38.3690   58.5038   62.9506 O   0  0  0  0  0  0  0  0  0  0  0  0
  -42.9518   65.6466   67.2440 C   0  0  0  0  0  0  0  0  0  0  0  0
  -35.4212   59.8922   65.6081 O   0  0  0  0  0  0  0  0  0  0  0  0
  -43.0225   64.2075   67.7229 C   0  0  0  0  0  0  0  0  0  0  0  0
  -33.0346   59.2516   65.9368 O   0  5  0  0  0  0  0  0  0  0  0  0
  -44.3539   63.5314   67.4265 C   0  0  0  0  0  0  0  0  0  0  0  0
  -33.7655   61.6836   66.1443 O   0  0  0  0  0  0  0  0  0  0  0  0
  -44.4315   62.1009   67.9190 C   0  0  0  0  0  0  0  0  0  0  0  0
  -34.3431   60.0224   67.9054 O   0  0  0  0  0  0  0  0  0  0  0  0
  -45.7535   61.4266   67.6062 C   0  0  0  0  0  0  0  0  0  0  0  0
  -30.6899   61.9372   67.3851 O   0  0  0  0  0  0  0  0  0  0  0  0
  -45.8517   59.9916   68.1113 C   0  0  0  0  0  0  0  0  0  0  0  0
  -31.1315   60.2570   69.6234 O   0  0  0  0  0  0  0  0  0  0  0  0
  -44.7916   59.0699   67.5458 C   0  0  0  0  0  0  0  0  0  0  0  0
  -38.2720   59.8520   65.2990 O   0  0  0  0  0  0  0  0  0  0  0  0
  -44.8098   58.9602   66.0345 C   0  0  0  0  0  0  0  0  0  0  0  0
  -40.2610   59.8884   64.2489 O   0  0  0  0  0  0  0  0  0  0  0  0
  -43.7504   58.0197   65.5042 C   0  0  0  0  0  0  0  0  0  0  0  0
  -43.7442   57.9125   64.0022 C   0  0  0  0  0  0  0  0  0  0  0  0
  -42.6954   56.9593   63.4834 C   0  0  0  0  0  0  0  0  0  0  0  0
  -42.6743   56.8612   61.9714 C   0  0  0  0  0  0  0  0  0  0  0  0
  -42.3742   58.1805   61.2967 C   0  0  0  0  0  0  0  0  0  0  0  0
  -41.0265   58.7690   61.6572 C   0  0  0  0  0  0  0  0  0  0  0  0
  -39.8676   57.8664   61.2691 C   0  0  0  0  0  0  0  0  0  0  0  0
  -38.5165   58.4143   61.6284 C   0  0  0  0  0  0  0  0  0  0  0  0
  -37.0720   58.9080   63.4380 C   0  0  0  0  0  0  0  0  0  0  0  0
  -37.3490   60.1700   64.2050 C   0  0  2  0  0  0  0  0  0  0  0  0
  -36.0840   60.8130   64.7130 C   0  0  0  0  0  0  0  0  0  0  0  0
  -33.2816   59.6066   68.7887 C   0  0  0  0  0  0  0  0  0  0  0  0
  -32.2020   60.6606   68.7643 C   0  0  2  0  0  0  0  0  0  0  0  0
  -31.6823   60.9191   67.3705 C   0  0  0  0  0  0  0  0  0  0  0  0
  -39.4672   59.3329   64.9581 C   0  0  0  0  0  0  0  0  0  0  0  0
  -39.6789   57.9753   65.5532 C   0  0  0  0  0  0  0  0  0  0  0  0
  -39.6438   58.0216   67.0774 C   0  0  0  0  0  0  0  0  0  0  0  0
  -39.8364   56.6672   67.7397 C   0  0  0  0  0  0  0  0  0  0  0  0
  -38.7647   55.6488   67.3681 C   0  0  0  0  0  0  0  0  0  0  0  0
  -37.3585   56.0617   67.7611 C   0  0  0  0  0  0  0  0  0  0  0  0
  -36.8825   57.3759   67.1354 C   0  0  0  0  0  0  0  0  0  0  0  0
  -35.4597   57.7975   67.5087 C   0  0  0  0  0  0  0  0  0  0  0  0
  -35.2926   57.9738   68.9882 C   0  0  0  0  0  0  0  0  0  0  0  0
  -35.4764   59.0850   69.6744 C   0  0  0  0  0  0  0  0  0  0  0  0
  -35.8940   60.4086   69.1158 C   0  0  0  0  0  0  0  0  0  0  0  0
  -36.7647   60.2665   67.8707 C   0  0  0  0  0  0  0  0  0  0  0  0
  -37.1908   61.5947   67.2702 C   0  0  0  0  0  0  0  0  0  0  0  0
  -37.9868   62.4681   68.2246 C   0  0  0  0  0  0  0  0  0  0  0  0
  -39.2713   61.8358   68.7341 C   0  0  0  0  0  0  0  0  0  0  0  0
  -40.0582   62.7363   69.6741 C   0  0  0  0  0  0  0  0  0  0  0  0
  -41.3349   62.1160   70.2063 C   0  0  0  0  0  0  0  0  0  0  0  0
  -41.0861   60.8636   70.9996 C   0  0  0  0  0  0  0  0  0  0  0  0
  -44.6134   68.5994   67.8106 H   0  0  0  0  0  0  0  0  0  0  0  0
  -44.0268   67.9871   66.2829 H   0  0  0  0  0  0  0  0  0  0  0  0
  -42.8987   68.3770   67.5590 H   0  0  0  0  0  0  0  0  0  0  0  0
  -44.9561   66.1996   67.6506 H   0  0  0  0  0  0  0  0  0  0  0  0
  -43.7932   66.6034   68.9209 H   0  0  0  0  0  0  0  0  0  0  0  0
  -41.9776   66.0260   67.4718 H   0  0  0  0  0  0  0  0  0  0  0  0
  -43.1615   65.6262   66.1949 H   0  0  0  0  0  0  0  0  0  0  0  0
  -42.8650   64.1951   68.7812 H   0  0  0  0  0  0  0  0  0  0  0  0
  -42.2692   63.6630   67.1929 H   0  0  0  0  0  0  0  0  0  0  0  0
  -44.5055   63.5330   66.3673 H   0  0  0  0  0  0  0  0  0  0  0  0
  -45.1085   64.0835   67.9468 H   0  0  0  0  0  0  0  0  0  0  0  0
  -33.5830   61.8440   65.2052 H   0  0  0  0  0  0  0  0  0  0  0  0
  -44.2929   62.0995   68.9800 H   0  0  0  0  0  0  0  0  0  0  0  0
  -43.6680   61.5500   67.4105 H   0  0  0  0  0  0  0  0  0  0  0  0
  -45.8846   61.4194   66.5443 H   0  0  0  0  0  0  0  0  0  0  0  0
  -46.5135   61.9856   68.1110 H   0  0  0  0  0  0  0  0  0  0  0  0
  -30.3688   62.0888   66.4824 H   0  0  0  0  0  0  0  0  0  0  0  0
  -46.8127   59.6048   67.8432 H   0  0  0  0  0  0  0  0  0  0  0  0
  -45.7036   60.0236   69.1705 H   0  0  0  0  0  0  0  0  0  0  0  0
  -31.4766   60.0938   70.5152 H   0  0  0  0  0  0  0  0  0  0  0  0
  -44.9423   58.0930   67.9555 H   0  0  0  0  0  0  0  0  0  0  0  0
  -43.8439   59.4885   67.8135 H   0  0  0  0  0  0  0  0  0  0  0  0
  -44.6437   59.9321   65.6189 H   0  0  0  0  0  0  0  0  0  0  0  0
  -45.7631   58.5658   65.7508 H   0  0  0  0  0  0  0  0  0  0  0  0
  -43.9253   57.0465   65.9130 H   0  0  0  0  0  0  0  0  0  0  0  0
  -42.8006   58.4163   65.7966 H   0  0  0  0  0  0  0  0  0  0  0  0
  -43.5561   58.8826   63.5918 H   0  0  0  0  0  0  0  0  0  0  0  0
  -44.6986   57.5311   63.7046 H   0  0  0  0  0  0  0  0  0  0  0  0
  -42.8912   55.9869   63.8846 H   0  0  0  0  0  0  0  0  0  0  0  0
  -41.7426   57.3365   63.7911 H   0  0  0  0  0  0  0  0  0  0  0  0
  -43.6318   56.5184   61.6388 H   0  0  0  0  0  0  0  0  0  0  0  0
  -41.8917   56.1814   61.7063 H   0  0  0  0  0  0  0  0  0  0  0  0
  -43.1324   58.8812   61.5775 H   0  0  0  0  0  0  0  0  0  0  0  0
  -42.3552   57.9903   60.2439 H   0  0  0  0  0  0  0  0  0  0  0  0
  -40.9954   58.9299   62.7146 H   0  0  0  0  0  0  0  0  0  0  0  0
  -40.9185   59.6842   61.1134 H   0  0  0  0  0  0  0  0  0  0  0  0
  -39.8985   57.7165   60.2101 H   0  0  0  0  0  0  0  0  0  0  0  0
  -39.9877   56.9565   61.8190 H   0  0  0  0  0  0  0  0  0  0  0  0
  -36.4020   59.0962   62.6252 H   0  0  0  0  0  0  0  0  0  0  0  0
  -36.6048   58.1555   64.0382 H   0  0  0  0  0  0  0  0  0  0  0  0
  -37.7985   60.8886   63.5519 H   0  0  0  0  0  0  0  0  0  0  0  0
  -35.4401   61.0403   63.8892 H   0  0  0  0  0  0  0  0  0  0  0  0
  -36.3193   61.7188   65.2317 H   0  0  0  0  0  0  0  0  0  0  0  0
  -32.8811   58.6713   68.4574 H   0  0  0  0  0  0  0  0  0  0  0  0
  -33.6566   59.4871   69.7837 H   0  0  0  0  0  0  0  0  0  0  0  0
  -32.6293   61.5780   69.1118 H   0  0  0  0  0  0  0  0  0  0  0  0
  -31.2556   60.0181   66.9820 H   0  0  0  0  0  0  0  0  0  0  0  0
  -32.4958   61.2403   66.7540 H   0  0  0  0  0  0  0  0  0  0  0  0
  -38.9071   57.3198   65.2073 H   0  0  0  0  0  0  0  0  0  0  0  0
  -40.6424   57.6223   65.2500 H   0  0  0  0  0  0  0  0  0  0  0  0
  -40.4226   58.6742   67.4126 H   0  0  0  0  0  0  0  0  0  0  0  0
  -38.6700   58.3672   67.3551 H   0  0  0  0  0  0  0  0  0  0  0  0
  -40.7889   56.2789   67.4451 H   0  0  0  0  0  0  0  0  0  0  0  0
  -39.7695   56.8221   68.7964 H   0  0  0  0  0  0  0  0  0  0  0  0
  -38.7896   55.5058   66.3080 H   0  0  0  0  0  0  0  0  0  0  0  0
  -38.9873   54.7533   67.9099 H   0  0  0  0  0  0  0  0  0  0  0  0
  -36.6862   55.2857   67.4598 H   0  0  0  0  0  0  0  0  0  0  0  0
  -37.3723   56.2169   68.8197 H   0  0  0  0  0  0  0  0  0  0  0  0
  -37.5502   58.1517   67.4471 H   0  0  0  0  0  0  0  0  0  0  0  0
  -36.8769   57.2161   66.0774 H   0  0  0  0  0  0  0  0  0  0  0  0
  -35.2362   58.7246   67.0235 H   0  0  0  0  0  0  0  0  0  0  0  0
  -34.7931   57.0226   67.1923 H   0  0  0  0  0  0  0  0  0  0  0  0
  -35.0043   57.1405   69.5245 H   0  0  0  0  0  0  0  0  0  0  0  0
  -35.3170   59.0370   70.6929 H   0  0  0  0  0  0  0  0  0  0  0  0
  -35.0170   60.9656   68.8600 H   0  0  0  0  0  0  0  0  0  0  0  0
  -36.4731   60.9097   69.8630 H   0  0  0  0  0  0  0  0  0  0  0  0
  -37.6442   59.7170   68.1342 H   0  0  0  0  0  0  0  0  0  0  0  0
  -36.1756   59.7637   67.1324 H   0  0  0  0  0  0  0  0  0  0  0  0
  -37.7945   61.3980   66.4089 H   0  0  0  0  0  0  0  0  0  0  0  0
  -36.2966   62.1300   67.0279 H   0  0  0  0  0  0  0  0  0  0  0  0
  -38.2395   63.3750   67.7160 H   0  0  0  0  0  0  0  0  0  0  0  0
  -37.3656   62.6281   69.0810 H   0  0  0  0  0  0  0  0  0  0  0  0
  -39.0221   60.9359   69.2565 H   0  0  0  0  0  0  0  0  0  0  0  0
  -39.8914   61.6511   67.8819 H   0  0  0  0  0  0  0  0  0  0  0  0
  -40.3148   63.6305   69.1454 H   0  0  0  0  0  0  0  0  0  0  0  0
  -39.4301   62.9204   70.5205 H   0  0  0  0  0  0  0  0  0  0  0  0
  -41.9695   61.8763   69.3788 H   0  0  0  0  0  0  0  0  0  0  0  0
  -41.7905   62.8281   70.8621 H   0  0  0  0  0  0  0  0  0  0  0  0
  -40.6293   60.1281   70.3710 H   0  0  0  0  0  0  0  0  0  0  0  0
  -42.0157   60.4868   71.3721 H   0  0  0  0  0  0  0  0  0  0  0  0
  -40.4362   61.0846   71.8204 H   0  0  0  0  0  0  0  0  0  0  0  0
  1  4  1  0  0  0  0
  1 54  1  0  0  0  0
  1 55  1  0  0  0  0
  1 56  1  0  0  0  0
  2 29  2  0  0  0  0
  3  7  1  0  0  0  0
  3  9  2  6  0  0  0
  3 11  1  0  0  0  0
  3 13  1  0  0  0  0
  4  6  1  0  0  0  0
  4 57  1  0  0  0  0
  4 58  1  0  0  0  0
  5 29  1  0  0  0  0
  5 30  1  0  0  0  0
  6  8  1  0  0  0  0
  6 59  1  0  0  0  0
  6 60  1  0  0  0  0
  7 32  1  0  0  0  0
  8 10  1  0  0  0  0
  8 61  1  0  0  0  0
  8 62  1  0  0  0  0
 10 12  1  0  0  0  0
 10 63  1  0  0  0  0
 10 64  1  0  0  0  0
 11 65  1  0  0  0  0
 12 14  1  0  0  0  0
 12 66  1  0  0  0  0
 12 67  1  0  0  0  0
 13 33  1  0  0  0  0
 14 16  1  0  0  0  0
 14 68  1  0  0  0  0
 14 69  1  0  0  0  0
 15 35  1  0  0  0  0
 15 70  1  0  0  0  0
 16 18  1  0  0  0  0
 16 71  1  0  0  0  0
 16 72  1  0  0  0  0
 17 34  1  0  0  0  0
 17 73  1  0  0  0  0
 18 20  1  0  0  0  0
 18 74  1  0  0  0  0
 18 75  1  0  0  0  0
 19 31  1  0  0  0  0
 19 36  1  0  0  0  0
 20 22  1  0  0  0  0
 20 76  1  0  0  0  0
 20 77  1  0  0  0  0
 21 36  2  0  0  0  0
 22 23  1  0  0  0  0
 22 78  1  0  0  0  0
 22 79  1  0  0  0  0
 23 24  1  0  0  0  0
 23 80  1  0  0  0  0
 23 81  1  0  0  0  0
 24 25  1  0  0  0  0
 24 82  1  0  0  0  0
 24 83  1  0  0  0  0
 25 26  1  0  0  0  0
 25 84  1  0  0  0  0
 25 85  1  0  0  0  0
 26 27  1  0  0  0  0
 26 86  1  0  0  0  0
 26 87  1  0  0  0  0
 27 28  1  0  0  0  0
 27 88  1  0  0  0  0
 27 89  1  0  0  0  0
 28 29  1  0  0  0  0
 28 90  1  0  0  0  0
 28 91  1  0  0  0  0
 30 31  1  0  0  0  0
 30 92  1  0  0  0  0
 30 93  1  0  0  0  0
 31 32  1  0  0  0  0
 31 94  1  6  0  0  0
 32 95  1  0  0  0  0
 32 96  1  0  0  0  0
 33 34  1  0  0  0  0
 33 97  1  0  0  0  0
 33 98  1  0  0  0  0
 34 35  1  0  0  0  0
 34 99  1  1  0  0  0
 35100  1  0  0  0  0
 35101  1  0  0  0  0
 36 37  1  0  0  0  0
 37 38  1  0  0  0  0
 37102  1  0  0  0  0
 37103  1  0  0  0  0
 38 39  1  0  0  0  0
 38104  1  0  0  0  0
 38105  1  0  0  0  0
 39 40  1  0  0  0  0
 39106  1  0  0  0  0
 39107  1  0  0  0  0
 40 41  1  0  0  0  0
 40108  1  0  0  0  0
 40109  1  0  0  0  0
 41 42  1  0  0  0  0
 41110  1  0  0  0  0
 41111  1  0  0  0  0
 42 43  1  0  0  0  0
 42112  1  0  0  0  0
 42113  1  0  0  0  0
 43 44  1  0  0  0  0
 43114  1  0  0  0  0
 43115  1  0  0  0  0
 44 45  2  0  0  0  0
 44116  1  0  0  0  0
 45 46  1  0  0  0  0
 45117  1  0  0  0  0
 46 47  1  0  0  0  0
 46118  1  0  0  0  0
 46119  1  0  0  0  0
 47 48  1  0  0  0  0
 47120  1  0  0  0  0
 47121  1  0  0  0  0
 48 49  1  0  0  0  0
 48122  1  0  0  0  0
 48123  1  0  0  0  0
 49 50  1  0  0  0  0
 49124  1  0  0  0  0
 49125  1  0  0  0  0
 50 51  1  0  0  0  0
 50126  1  0  0  0  0
 50127  1  0  0  0  0
 51 52  1  0  0  0  0
 51128  1  0  0  0  0
 51129  1  0  0  0  0
 52 53  1  0  0  0  0
 52130  1  0  0  0  0
 52131  1  0  0  0  0
 53132  1  0  0  0  0
 53133  1  0  0  0  0
 53134  1  0  0  0  0
M  CHG  1   9  -1
M  END
$$$$