/media/chris/experiments/cd1a-new-docking/inputs/ligands/7sh4_ligand.pdb
 OpenBabel07012320073D

134133  0  0  1  0  0  0  0  0999 V2000
  -32.3854   56.6317   55.1899 C   0  0  0  0  0  0  0  0  0  0  0  0
  -34.6172   57.8911   63.1815 O   0  0  0  0  0  0  0  0  0  0  0  0
  -35.6684   62.1020   62.4058 P   0  0  1  0  0  0  0  0  0  0  0  0
  -31.0029   56.0428   55.0239 C   0  0  0  0  0  0  0  0  0  0  0  0
  -36.1511   59.3213   62.4064 O   0  0  0  0  0  0  0  0  0  0  0  0
  -30.2093   56.7298   53.9287 C   0  0  0  0  0  0  0  0  0  0  0  0
  -35.2304   61.1139   63.5864 O   0  0  0  0  0  0  0  0  0  0  0  0
  -29.9683   58.2120   54.1530 C   0  0  0  0  0  0  0  0  0  0  0  0
  -37.0301   62.5959   62.7036 O   0  5  0  0  0  0  0  0  0  0  0  0
  -31.2490   59.0254   54.2782 C   0  0  0  0  0  0  0  0  0  0  0  0
  -34.5810   63.0894   62.2031 O   0  0  0  0  0  0  0  0  0  0  0  0
  -31.0095   60.5070   54.4851 C   0  0  0  0  0  0  0  0  0  0  0  0
  -35.7515   61.1898   61.1005 O   0  0  0  0  0  0  0  0  0  0  0  0
  -32.2883   61.3102   54.6263 C   0  0  0  0  0  0  0  0  0  0  0  0
  -37.5584   61.7528   58.1628 O   0  0  0  0  0  0  0  0  0  0  0  0
  -33.2171   61.2127   53.4213 C   0  0  0  0  0  0  0  0  0  0  0  0
  -38.1876   62.3807   61.7173 O   0  0  0  0  0  0  0  0  0  0  0  0
  -34.4850   62.0292   53.5585 C   0  0  0  0  0  0  0  0  0  0  0  0
  -38.2720   59.8520   65.2990 O   0  0  0  0  0  0  0  0  0  0  0  0
  -35.3402   61.6480   54.7499 C   0  0  0  0  0  0  0  0  0  0  0  0
  -39.8075   59.1219   63.8261 O   0  0  0  0  0  0  0  0  0  0  0  0
  -35.7833   60.2021   54.7123 C   0  0  0  0  0  0  0  0  0  0  0  0
  -36.6484   59.8116   55.8813 C   0  0  0  0  0  0  0  0  0  0  0  0
  -35.9631   60.0033   57.2122 C   0  0  0  0  0  0  0  0  0  0  0  0
  -34.6853   59.2000   57.3462 C   0  0  0  0  0  0  0  0  0  0  0  0
  -34.0101   59.3810   58.6868 C   0  0  0  0  0  0  0  0  0  0  0  0
  -34.8533   58.9519   59.8689 C   0  0  0  0  0  0  0  0  0  0  0  0
  -34.1515   59.1632   61.1998 C   0  0  0  0  0  0  0  0  0  0  0  0
  -34.9553   58.7317   62.3924 C   0  0  0  0  0  0  0  0  0  0  0  0
  -37.0720   58.9080   63.4380 C   0  0  0  0  0  0  0  0  0  0  0  0
  -37.3490   60.1700   64.2050 C   0  0  2  0  0  0  0  0  0  0  0  0
  -36.0840   60.8130   64.7130 C   0  0  0  0  0  0  0  0  0  0  0  0
  -36.9919   60.5429   60.7502 C   0  0  0  0  0  0  0  0  0  0  0  0
  -38.0363   61.6080   60.5227 C   0  0  2  0  0  0  0  0  0  0  0  0
  -37.6953   62.5083   59.3595 C   0  0  0  0  0  0  0  0  0  0  0  0
  -39.4672   59.3329   64.9581 C   0  0  0  0  0  0  0  0  0  0  0  0
  -40.3113   59.0340   66.1581 C   0  0  0  0  0  0  0  0  0  0  0  0
  -40.5996   60.2950   66.9666 C   0  0  0  0  0  0  0  0  0  0  0  0
  -41.3553   61.3634   66.1937 C   0  0  0  0  0  0  0  0  0  0  0  0
  -41.6243   62.6265   67.0036 C   0  0  0  0  0  0  0  0  0  0  0  0
  -42.3932   63.6930   66.2461 C   0  0  0  0  0  0  0  0  0  0  0  0
  -41.7073   64.1863   64.9689 C   0  0  0  0  0  0  0  0  0  0  0  0
  -42.4624   65.2743   64.2024 C   0  0  0  0  0  0  0  0  0  0  0  0
  -41.7394   65.6937   62.9577 C   0  0  0  0  0  0  0  0  0  0  0  0
  -40.8502   66.6620   62.8520 C   0  0  0  0  0  0  0  0  0  0  0  0
  -40.3740   67.5478   63.9597 C   0  0  0  0  0  0  0  0  0  0  0  0
  -41.2157   68.8132   64.0962 C   0  0  0  0  0  0  0  0  0  0  0  0
  -41.2325   69.6721   62.8439 C   0  0  0  0  0  0  0  0  0  0  0  0
  -39.8558   70.1453   62.4104 C   0  0  0  0  0  0  0  0  0  0  0  0
  -39.8530   71.0206   61.1681 C   0  0  0  0  0  0  0  0  0  0  0  0
  -40.4419   70.3364   59.9439 C   0  0  0  0  0  0  0  0  0  0  0  0
  -40.4324   71.1884   58.6902 C   0  0  0  0  0  0  0  0  0  0  0  0
  -41.2037   72.4685   58.8513 C   0  0  0  0  0  0  0  0  0  0  0  0
  -32.9019   56.1143   55.9713 H   0  0  0  0  0  0  0  0  0  0  0  0
  -32.9292   56.5290   54.2741 H   0  0  0  0  0  0  0  0  0  0  0  0
  -32.3037   57.6683   55.4419 H   0  0  0  0  0  0  0  0  0  0  0  0
  -31.0983   55.0054   54.7799 H   0  0  0  0  0  0  0  0  0  0  0  0
  -30.4762   56.1823   55.9448 H   0  0  0  0  0  0  0  0  0  0  0  0
  -30.7429   56.6146   53.0084 H   0  0  0  0  0  0  0  0  0  0  0  0
  -29.2454   56.2655   53.9179 H   0  0  0  0  0  0  0  0  0  0  0  0
  -29.4056   58.5921   53.3261 H   0  0  0  0  0  0  0  0  0  0  0  0
  -29.4436   58.3078   55.0806 H   0  0  0  0  0  0  0  0  0  0  0  0
  -31.8057   58.6531   55.1127 H   0  0  0  0  0  0  0  0  0  0  0  0
  -31.7791   58.9195   53.3549 H   0  0  0  0  0  0  0  0  0  0  0  0
  -34.5103   63.6579   62.9859 H   0  0  0  0  0  0  0  0  0  0  0  0
  -30.4639   60.8829   53.6449 H   0  0  0  0  0  0  0  0  0  0  0  0
  -30.4666   60.6142   55.4009 H   0  0  0  0  0  0  0  0  0  0  0  0
  -32.0263   62.3380   54.7671 H   0  0  0  0  0  0  0  0  0  0  0  0
  -32.8196   60.9027   55.4608 H   0  0  0  0  0  0  0  0  0  0  0  0
  -37.3398   62.3474   57.4283 H   0  0  0  0  0  0  0  0  0  0  0  0
  -33.4895   60.1867   53.2877 H   0  0  0  0  0  0  0  0  0  0  0  0
  -32.6819   61.6073   52.5830 H   0  0  0  0  0  0  0  0  0  0  0  0
  -38.4063   61.7927   62.4571 H   0  0  0  0  0  0  0  0  0  0  0  0
  -35.0675   61.8972   52.6707 H   0  0  0  0  0  0  0  0  0  0  0  0
  -34.1835   63.0450   53.7074 H   0  0  0  0  0  0  0  0  0  0  0  0
  -36.2093   62.2720   54.7611 H   0  0  0  0  0  0  0  0  0  0  0  0
  -34.7460   61.7809   55.6298 H   0  0  0  0  0  0  0  0  0  0  0  0
  -34.9125   59.5804   54.7120 H   0  0  0  0  0  0  0  0  0  0  0  0
  -36.3713   60.0747   53.8275 H   0  0  0  0  0  0  0  0  0  0  0  0
  -36.9134   58.7799   55.7798 H   0  0  0  0  0  0  0  0  0  0  0  0
  -37.5085   60.4479   55.8697 H   0  0  0  0  0  0  0  0  0  0  0  0
  -36.6364   59.7034   57.9878 H   0  0  0  0  0  0  0  0  0  0  0  0
  -35.6983   61.0373   57.2877 H   0  0  0  0  0  0  0  0  0  0  0  0
  -34.0067   59.5085   56.5785 H   0  0  0  0  0  0  0  0  0  0  0  0
  -34.9469   58.1663   57.2572 H   0  0  0  0  0  0  0  0  0  0  0  0
  -33.7697   60.4170   58.8044 H   0  0  0  0  0  0  0  0  0  0  0  0
  -33.1440   58.7526   58.6824 H   0  0  0  0  0  0  0  0  0  0  0  0
  -35.0837   57.9122   59.7651 H   0  0  0  0  0  0  0  0  0  0  0  0
  -35.7367   59.5557   59.8709 H   0  0  0  0  0  0  0  0  0  0  0  0
  -33.9317   60.2054   61.3020 H   0  0  0  0  0  0  0  0  0  0  0  0
  -33.2714   58.5548   61.1844 H   0  0  0  0  0  0  0  0  0  0  0  0
  -36.6274   58.1683   64.0706 H   0  0  0  0  0  0  0  0  0  0  0  0
  -37.9610   58.4631   63.0423 H   0  0  0  0  0  0  0  0  0  0  0  0
  -37.7985   60.8886   63.5519 H   0  0  0  0  0  0  0  0  0  0  0  0
  -36.3238   61.7163   65.2340 H   0  0  0  0  0  0  0  0  0  0  0  0
  -35.5811   60.1472   65.3829 H   0  0  0  0  0  0  0  0  0  0  0  0
  -37.3007   59.8980   61.5462 H   0  0  0  0  0  0  0  0  0  0  0  0
  -36.8640   59.9578   59.8635 H   0  0  0  0  0  0  0  0  0  0  0  0
  -38.9568   61.1202   60.2786 H   0  0  0  0  0  0  0  0  0  0  0  0
  -38.4759   63.2291   59.2325 H   0  0  0  0  0  0  0  0  0  0  0  0
  -36.7669   62.9990   59.5648 H   0  0  0  0  0  0  0  0  0  0  0  0
  -39.7956   58.3325   66.7801 H   0  0  0  0  0  0  0  0  0  0  0  0
  -41.2434   58.6308   65.8211 H   0  0  0  0  0  0  0  0  0  0  0  0
  -39.6671   60.7088   67.2892 H   0  0  0  0  0  0  0  0  0  0  0  0
  -41.2247   60.0031   67.7846 H   0  0  0  0  0  0  0  0  0  0  0  0
  -42.2939   60.9551   65.8817 H   0  0  0  0  0  0  0  0  0  0  0  0
  -40.7396   61.6464   65.3656 H   0  0  0  0  0  0  0  0  0  0  0  0
  -40.6843   63.0395   67.3050 H   0  0  0  0  0  0  0  0  0  0  0  0
  -42.2328   62.3376   67.8349 H   0  0  0  0  0  0  0  0  0  0  0  0
  -42.5301   64.5314   66.8967 H   0  0  0  0  0  0  0  0  0  0  0  0
  -43.3153   63.2437   65.9414 H   0  0  0  0  0  0  0  0  0  0  0  0
  -41.5815   63.3481   64.3159 H   0  0  0  0  0  0  0  0  0  0  0  0
  -40.7839   64.6285   65.2796 H   0  0  0  0  0  0  0  0  0  0  0  0
  -42.5777   66.1272   64.8382 H   0  0  0  0  0  0  0  0  0  0  0  0
  -43.4116   64.8744   63.9127 H   0  0  0  0  0  0  0  0  0  0  0  0
  -41.9600   65.1712   62.0955 H   0  0  0  0  0  0  0  0  0  0  0  0
  -40.4446   66.8239   61.9170 H   0  0  0  0  0  0  0  0  0  0  0  0
  -39.3605   67.8290   63.7630 H   0  0  0  0  0  0  0  0  0  0  0  0
  -40.4586   66.9997   64.8747 H   0  0  0  0  0  0  0  0  0  0  0  0
  -40.8204   69.3969   64.9011 H   0  0  0  0  0  0  0  0  0  0  0  0
  -42.2234   68.5011   64.2753 H   0  0  0  0  0  0  0  0  0  0  0  0
  -41.8416   70.5315   63.0317 H   0  0  0  0  0  0  0  0  0  0  0  0
  -41.6181   69.0640   62.0524 H   0  0  0  0  0  0  0  0  0  0  0  0
  -39.2528   69.2836   62.2135 H   0  0  0  0  0  0  0  0  0  0  0  0
  -39.4756   70.7481   63.2086 H   0  0  0  0  0  0  0  0  0  0  0  0
  -38.8423   71.2954   60.9494 H   0  0  0  0  0  0  0  0  0  0  0  0
  -40.4673   71.8707   61.3802 H   0  0  0  0  0  0  0  0  0  0  0  0
  -41.4556   70.0723   60.1623 H   0  0  0  0  0  0  0  0  0  0  0  0
  -39.8258   69.4853   59.7416 H   0  0  0  0  0  0  0  0  0  0  0  0
  -40.8670   70.6255   57.8908 H   0  0  0  0  0  0  0  0  0  0  0  0
  -39.4150   71.4484   58.4846 H   0  0  0  0  0  0  0  0  0  0  0  0
  -42.2290   72.2435   59.0586 H   0  0  0  0  0  0  0  0  0  0  0  0
  -41.1393   73.0397   57.9487 H   0  0  0  0  0  0  0  0  0  0  0  0
  -40.7918   73.0337   59.6611 H   0  0  0  0  0  0  0  0  0  0  0  0
  1  4  1  0  0  0  0
  1 54  1  0  0  0  0
  1 55  1  0  0  0  0
  1 56  1  0  0  0  0
  2 29  2  0  0  0  0
  3  7  1  0  0  0  0
  3  9  2  1  0  0  0
  3 11  1  0  0  0  0
  3 13  1  0  0  0  0
  4  6  1  0  0  0  0
  4 57  1  0  0  0  0
  4 58  1  0  0  0  0
  5 29  1  0  0  0  0
  5 30  1  0  0  0  0
  6  8  1  0  0  0  0
  6 59  1  0  0  0  0
  6 60  1  0  0  0  0
  7 32  1  0  0  0  0
  8 10  1  0  0  0  0
  8 61  1  0  0  0  0
  8 62  1  0  0  0  0
 10 12  1  0  0  0  0
 10 63  1  0  0  0  0
 10 64  1  0  0  0  0
 11 65  1  0  0  0  0
 12 14  1  0  0  0  0
 12 66  1  0  0  0  0
 12 67  1  0  0  0  0
 13 33  1  0  0  0  0
 14 16  1  0  0  0  0
 14 68  1  0  0  0  0
 14 69  1  0  0  0  0
 15 35  1  0  0  0  0
 15 70  1  0  0  0  0
 16 18  1  0  0  0  0
 16 71  1  0  0  0  0
 16 72  1  0  0  0  0
 17 34  1  0  0  0  0
 17 73  1  0  0  0  0
 18 20  1  0  0  0  0
 18 74  1  0  0  0  0
 18 75  1  0  0  0  0
 19 31  1  0  0  0  0
 19 36  1  0  0  0  0
 20 22  1  0  0  0  0
 20 76  1  0  0  0  0
 20 77  1  0  0  0  0
 21 36  2  0  0  0  0
 22 23  1  0  0  0  0
 22 78  1  0  0  0  0
 22 79  1  0  0  0  0
 23 24  1  0  0  0  0
 23 80  1  0  0  0  0
 23 81  1  0  0  0  0
 24 25  1  0  0  0  0
 24 82  1  0  0  0  0
 24 83  1  0  0  0  0
 25 26  1  0  0  0  0
 25 84  1  0  0  0  0
 25 85  1  0  0  0  0
 26 27  1  0  0  0  0
 26 86  1  0  0  0  0
 26 87  1  0  0  0  0
 27 28  1  0  0  0  0
 27 88  1  0  0  0  0
 27 89  1  0  0  0  0
 28 29  1  0  0  0  0
 28 90  1  0  0  0  0
 28 91  1  0  0  0  0
 30 31  1  0  0  0  0
 30 92  1  0  0  0  0
 30 93  1  0  0  0  0
 31 32  1  0  0  0  0
 31 94  1  6  0  0  0
 32 95  1  0  0  0  0
 32 96  1  0  0  0  0
 33 34  1  0  0  0  0
 33 97  1  0  0  0  0
 33 98  1  0  0  0  0
 34 35  1  0  0  0  0
 34 99  1  6  0  0  0
 35100  1  0  0  0  0
 35101  1  0  0  0  0
 36 37  1  0  0  0  0
 37 38  1  0  0  0  0
 37102  1  0  0  0  0
 37103  1  0  0  0  0
 38 39  1  0  0  0  0
 38104  1  0  0  0  0
 38105  1  0  0  0  0
 39 40  1  0  0  0  0
 39106  1  0  0  0  0
 39107  1  0  0  0  0
 40 41  1  0  0  0  0
 40108  1  0  0  0  0
 40109  1  0  0  0  0
 41 42  1  0  0  0  0
 41110  1  0  0  0  0
 41111  1  0  0  0  0
 42 43  1  0  0  0  0
 42112  1  0  0  0  0
 42113  1  0  0  0  0
 43 44  1  0  0  0  0
 43114  1  0  0  0  0
 43115  1  0  0  0  0
 44 45  2  0  0  0  0
 44116  1  0  0  0  0
 45 46  1  0  0  0  0
 45117  1  0  0  0  0
 46 47  1  0  0  0  0
 46118  1  0  0  0  0
 46119  1  0  0  0  0
 47 48  1  0  0  0  0
 47120  1  0  0  0  0
 47121  1  0  0  0  0
 48 49  1  0  0  0  0
 48122  1  0  0  0  0
 48123  1  0  0  0  0
 49 50  1  0  0  0  0
 49124  1  0  0  0  0
 49125  1  0  0  0  0
 50 51  1  0  0  0  0
 50126  1  0  0  0  0
 50127  1  0  0  0  0
 51 52  1  0  0  0  0
 51128  1  0  0  0  0
 51129  1  0  0  0  0
 52 53  1  0  0  0  0
 52130  1  0  0  0  0
 52131  1  0  0  0  0
 53132  1  0  0  0  0
 53133  1  0  0  0  0
 53134  1  0  0  0  0
M  CHG  1   9  -1
M  END
$$$$