/media/chris/experiments/cd1a-new-docking/inputs/ligands/7sh4_ligand.pdb
 OpenBabel07012320073D

134133  0  0  1  0  0  0  0  0999 V2000
  -39.7453   50.1483   73.8825 C   0  0  0  0  0  0  0  0  0  0  0  0
  -38.9960   60.3074   61.7875 O   0  0  0  0  0  0  0  0  0  0  0  0
  -34.0491   60.2433   66.3537 P   0  0  1  0  0  0  0  0  0  0  0  0
  -38.8037   50.9256   72.9908 C   0  0  0  0  0  0  0  0  0  0  0  0
  -38.3690   58.5038   62.9506 O   0  0  0  0  0  0  0  0  0  0  0  0
  -39.3686   52.2752   72.5900 C   0  0  0  0  0  0  0  0  0  0  0  0
  -35.4212   59.8922   65.6081 O   0  0  0  0  0  0  0  0  0  0  0  0
  -38.4717   53.0942   71.6791 C   0  0  0  0  0  0  0  0  0  0  0  0
  -34.2885   60.1710   67.8112 O   0  5  0  0  0  0  0  0  0  0  0  0
  -39.0560   54.4498   71.3071 C   0  0  0  0  0  0  0  0  0  0  0  0
  -32.9766   59.4052   65.7656 O   0  0  0  0  0  0  0  0  0  0  0  0
  -40.3889   54.3612   70.5925 C   0  0  0  0  0  0  0  0  0  0  0  0
  -33.7429   61.7632   65.9812 O   0  0  0  0  0  0  0  0  0  0  0  0
  -40.9582   55.7137   70.2092 C   0  0  0  0  0  0  0  0  0  0  0  0
  -30.2806   61.8000   68.2820 O   0  0  0  0  0  0  0  0  0  0  0  0
  -42.3079   55.6402   69.5042 C   0  0  0  0  0  0  0  0  0  0  0  0
  -30.1387   62.0061   65.4597 O   0  0  0  0  0  0  0  0  0  0  0  0
  -42.2841   54.8400   68.2187 C   0  0  0  0  0  0  0  0  0  0  0  0
  -38.2720   59.8520   65.2990 O   0  0  0  0  0  0  0  0  0  0  0  0
  -41.3211   55.3722   67.1768 C   0  0  0  0  0  0  0  0  0  0  0  0
  -39.8075   59.1219   63.8261 O   0  0  0  0  0  0  0  0  0  0  0  0
  -41.3345   54.5608   65.9002 C   0  0  0  0  0  0  0  0  0  0  0  0
  -40.3702   55.0668   64.8602 C   0  0  0  0  0  0  0  0  0  0  0  0
  -40.4029   54.2615   63.5843 C   0  0  0  0  0  0  0  0  0  0  0  0
  -39.4218   54.7569   62.5411 C   0  0  0  0  0  0  0  0  0  0  0  0
  -39.6626   56.1938   62.1372 C   0  0  0  0  0  0  0  0  0  0  0  0
  -38.7064   56.7102   61.0828 C   0  0  0  0  0  0  0  0  0  0  0  0
  -38.9658   58.1609   60.7132 C   0  0  0  0  0  0  0  0  0  0  0  0
  -38.8234   59.1206   61.8593 C   0  0  0  0  0  0  0  0  0  0  0  0
  -37.0720   58.9080   63.4380 C   0  0  0  0  0  0  0  0  0  0  0  0
  -37.3490   60.1700   64.2050 C   0  0  2  0  0  0  0  0  0  0  0  0
  -36.0840   60.8130   64.7130 C   0  0  0  0  0  0  0  0  0  0  0  0
  -32.5267   62.1046   65.2852 C   0  0  0  0  0  0  0  0  0  0  0  0
  -31.3560   61.6605   66.1274 C   0  0  2  0  0  0  0  0  0  0  0  0
  -31.3811   62.2647   67.5109 C   0  0  0  0  0  0  0  0  0  0  0  0
  -39.4672   59.3329   64.9581 C   0  0  0  0  0  0  0  0  0  0  0  0
  -40.3113   59.0340   66.1581 C   0  0  0  0  0  0  0  0  0  0  0  0
  -39.4546   58.6893   67.3722 C   0  0  0  0  0  0  0  0  0  0  0  0
  -40.2578   58.3591   68.6196 C   0  0  0  0  0  0  0  0  0  0  0  0
  -39.3939   58.0325   69.8323 C   0  0  0  0  0  0  0  0  0  0  0  0
  -38.4649   56.8503   69.6277 C   0  0  0  0  0  0  0  0  0  0  0  0
  -37.6029   56.4999   70.8439 C   0  0  0  0  0  0  0  0  0  0  0  0
  -36.6798   57.6184   71.3322 C   0  0  0  0  0  0  0  0  0  0  0  0
  -35.7164   58.0592   70.2713 C   0  0  0  0  0  0  0  0  0  0  0  0
  -34.5100   57.5734   70.0521 C   0  0  0  0  0  0  0  0  0  0  0  0
  -33.8486   56.4731   70.8204 C   0  0  0  0  0  0  0  0  0  0  0  0
  -34.7333   55.9305   71.9390 C   0  0  0  0  0  0  0  0  0  0  0  0
  -34.0818   54.8229   72.7483 C   0  0  0  0  0  0  0  0  0  0  0  0
  -33.6878   53.6127   71.9193 C   0  0  0  0  0  0  0  0  0  0  0  0
  -34.8431   52.9432   71.1937 C   0  0  0  0  0  0  0  0  0  0  0  0
  -34.4256   51.7247   70.3847 C   0  0  0  0  0  0  0  0  0  0  0  0
  -33.3937   52.0135   69.3126 C   0  0  0  0  0  0  0  0  0  0  0  0
  -32.1087   52.5558   69.8732 C   0  0  0  0  0  0  0  0  0  0  0  0
  -39.3019   49.2080   74.1357 H   0  0  0  0  0  0  0  0  0  0  0  0
  -40.6677   49.9803   73.3668 H   0  0  0  0  0  0  0  0  0  0  0  0
  -39.9326   50.7064   74.7759 H   0  0  0  0  0  0  0  0  0  0  0  0
  -38.6186   50.3540   72.1054 H   0  0  0  0  0  0  0  0  0  0  0  0
  -37.9026   51.0995   73.5409 H   0  0  0  0  0  0  0  0  0  0  0  0
  -39.5439   52.8408   73.4812 H   0  0  0  0  0  0  0  0  0  0  0  0
  -40.2613   52.0759   72.0349 H   0  0  0  0  0  0  0  0  0  0  0  0
  -38.3057   52.5390   70.7795 H   0  0  0  0  0  0  0  0  0  0  0  0
  -37.5648   53.2799   72.2158 H   0  0  0  0  0  0  0  0  0  0  0  0
  -38.3618   54.9530   70.6669 H   0  0  0  0  0  0  0  0  0  0  0  0
  -39.2250   54.9798   72.2212 H   0  0  0  0  0  0  0  0  0  0  0  0
  -33.1408   58.4733   65.9789 H   0  0  0  0  0  0  0  0  0  0  0  0
  -41.0872   53.8696   71.2371 H   0  0  0  0  0  0  0  0  0  0  0  0
  -40.2250   53.8189   69.6847 H   0  0  0  0  0  0  0  0  0  0  0  0
  -40.2632   56.1986   69.5560 H   0  0  0  0  0  0  0  0  0  0  0  0
  -41.1133   56.2539   71.1197 H   0  0  0  0  0  0  0  0  0  0  0  0
  -30.3139   62.1985   69.1658 H   0  0  0  0  0  0  0  0  0  0  0  0
  -42.6234   56.6367   69.2752 H   0  0  0  0  0  0  0  0  0  0  0  0
  -42.9800   55.1402   70.1698 H   0  0  0  0  0  0  0  0  0  0  0  0
  -30.1336   61.6130   64.5729 H   0  0  0  0  0  0  0  0  0  0  0  0
  -43.2690   54.8464   67.8006 H   0  0  0  0  0  0  0  0  0  0  0  0
  -41.9500   53.8560   68.4739 H   0  0  0  0  0  0  0  0  0  0  0  0
  -40.3318   55.3534   67.5838 H   0  0  0  0  0  0  0  0  0  0  0  0
  -41.6291   56.3668   66.9305 H   0  0  0  0  0  0  0  0  0  0  0  0
  -42.3223   54.5902   65.4899 H   0  0  0  0  0  0  0  0  0  0  0  0
  -41.0319   53.5665   66.1546 H   0  0  0  0  0  0  0  0  0  0  0  0
  -39.3803   55.0255   65.2643 H   0  0  0  0  0  0  0  0  0  0  0  0
  -40.6601   56.0672   64.6149 H   0  0  0  0  0  0  0  0  0  0  0  0
  -41.3900   54.3132   63.1746 H   0  0  0  0  0  0  0  0  0  0  0  0
  -40.1233   53.2592   63.8334 H   0  0  0  0  0  0  0  0  0  0  0  0
  -39.5084   54.1395   61.6716 H   0  0  0  0  0  0  0  0  0  0  0  0
  -38.4439   54.7058   62.9724 H   0  0  0  0  0  0  0  0  0  0  0  0
  -39.5655   56.8080   63.0079 H   0  0  0  0  0  0  0  0  0  0  0  0
  -40.6426   56.2331   61.7095 H   0  0  0  0  0  0  0  0  0  0  0  0
  -38.8102   56.1095   60.2034 H   0  0  0  0  0  0  0  0  0  0  0  0
  -37.7178   56.6525   61.4881 H   0  0  0  0  0  0  0  0  0  0  0  0
  -39.9629   58.2375   60.3327 H   0  0  0  0  0  0  0  0  0  0  0  0
  -38.2253   58.4321   59.9900 H   0  0  0  0  0  0  0  0  0  0  0  0
  -36.4020   59.0962   62.6252 H   0  0  0  0  0  0  0  0  0  0  0  0
  -36.6048   58.1555   64.0382 H   0  0  0  0  0  0  0  0  0  0  0  0
  -37.7985   60.8886   63.5519 H   0  0  0  0  0  0  0  0  0  0  0  0
  -35.4401   61.0403   63.8892 H   0  0  0  0  0  0  0  0  0  0  0  0
  -36.3193   61.7188   65.2317 H   0  0  0  0  0  0  0  0  0  0  0  0
  -32.4820   63.1628   65.1333 H   0  0  0  0  0  0  0  0  0  0  0  0
  -32.4995   61.6188   64.3322 H   0  0  0  0  0  0  0  0  0  0  0  0
  -31.4221   60.5997   66.2504 H   0  0  0  0  0  0  0  0  0  0  0  0
  -31.3281   63.3304   67.4298 H   0  0  0  0  0  0  0  0  0  0  0  0
  -32.2890   61.9742   67.9969 H   0  0  0  0  0  0  0  0  0  0  0  0
  -40.9498   58.2046   65.9363 H   0  0  0  0  0  0  0  0  0  0  0  0
  -40.8865   59.9061   66.3897 H   0  0  0  0  0  0  0  0  0  0  0  0
  -38.8250   59.5269   67.5889 H   0  0  0  0  0  0  0  0  0  0  0  0
  -38.8979   57.8110   67.1200 H   0  0  0  0  0  0  0  0  0  0  0  0
  -40.8782   57.5133   68.4084 H   0  0  0  0  0  0  0  0  0  0  0  0
  -40.8279   59.2305   68.8657 H   0  0  0  0  0  0  0  0  0  0  0  0
  -40.0400   57.8140   70.6567 H   0  0  0  0  0  0  0  0  0  0  0  0
  -38.7739   58.8864   70.0099 H   0  0  0  0  0  0  0  0  0  0  0  0
  -37.8127   57.0758   68.8100 H   0  0  0  0  0  0  0  0  0  0  0  0
  -39.0898   56.0014   69.4438 H   0  0  0  0  0  0  0  0  0  0  0  0
  -36.9952   55.6575   70.5872 H   0  0  0  0  0  0  0  0  0  0  0  0
  -38.2849   56.3067   71.6454 H   0  0  0  0  0  0  0  0  0  0  0  0
  -36.1252   57.2641   72.1759 H   0  0  0  0  0  0  0  0  0  0  0  0
  -37.2895   58.4582   71.5927 H   0  0  0  0  0  0  0  0  0  0  0  0
  -36.0292   58.8207   69.6490 H   0  0  0  0  0  0  0  0  0  0  0  0
  -33.9715   57.9916   69.2775 H   0  0  0  0  0  0  0  0  0  0  0  0
  -32.9439   56.8499   71.2500 H   0  0  0  0  0  0  0  0  0  0  0  0
  -33.6551   55.6707   70.1395 H   0  0  0  0  0  0  0  0  0  0  0  0
  -35.6320   55.5468   71.5031 H   0  0  0  0  0  0  0  0  0  0  0  0
  -34.9202   56.7414   72.6116 H   0  0  0  0  0  0  0  0  0  0  0  0
  -34.7709   54.5057   73.5030 H   0  0  0  0  0  0  0  0  0  0  0  0
  -33.1810   55.2258   73.1619 H   0  0  0  0  0  0  0  0  0  0  0  0
  -33.2401   52.8921   72.5714 H   0  0  0  0  0  0  0  0  0  0  0  0
  -33.0176   53.9662   71.1638 H   0  0  0  0  0  0  0  0  0  0  0  0
  -35.2846   53.6562   70.5291 H   0  0  0  0  0  0  0  0  0  0  0  0
  -35.5309   52.6052   71.9405 H   0  0  0  0  0  0  0  0  0  0  0  0
  -35.2966   51.3213   69.9120 H   0  0  0  0  0  0  0  0  0  0  0  0
  -33.9719   51.0408   71.0714 H   0  0  0  0  0  0  0  0  0  0  0  0
  -33.8000   52.7320   68.6316 H   0  0  0  0  0  0  0  0  0  0  0  0
  -33.1678   51.0885   68.8246 H   0  0  0  0  0  0  0  0  0  0  0  0
  -32.2999   53.4842   70.3697 H   0  0  0  0  0  0  0  0  0  0  0  0
  -31.4111   52.7140   69.0775 H   0  0  0  0  0  0  0  0  0  0  0  0
  -31.7005   51.8553   70.5715 H   0  0  0  0  0  0  0  0  0  0  0  0
  1  4  1  0  0  0  0
  1 54  1  0  0  0  0
  1 55  1  0  0  0  0
  1 56  1  0  0  0  0
  2 29  2  0  0  0  0
  3  7  1  0  0  0  0
  3  9  2  1  0  0  0
  3 11  1  0  0  0  0
  3 13  1  0  0  0  0
  4  6  1  0  0  0  0
  4 57  1  0  0  0  0
  4 58  1  0  0  0  0
  5 29  1  0  0  0  0
  5 30  1  0  0  0  0
  6  8  1  0  0  0  0
  6 59  1  0  0  0  0
  6 60  1  0  0  0  0
  7 32  1  0  0  0  0
  8 10  1  0  0  0  0
  8 61  1  0  0  0  0
  8 62  1  0  0  0  0
 10 12  1  0  0  0  0
 10 63  1  0  0  0  0
 10 64  1  0  0  0  0
 11 65  1  0  0  0  0
 12 14  1  0  0  0  0
 12 66  1  0  0  0  0
 12 67  1  0  0  0  0
 13 33  1  0  0  0  0
 14 16  1  0  0  0  0
 14 68  1  0  0  0  0
 14 69  1  0  0  0  0
 15 35  1  0  0  0  0
 15 70  1  0  0  0  0
 16 18  1  0  0  0  0
 16 71  1  0  0  0  0
 16 72  1  0  0  0  0
 17 34  1  0  0  0  0
 17 73  1  0  0  0  0
 18 20  1  0  0  0  0
 18 74  1  0  0  0  0
 18 75  1  0  0  0  0
 19 31  1  0  0  0  0
 19 36  1  0  0  0  0
 20 22  1  0  0  0  0
 20 76  1  0  0  0  0
 20 77  1  0  0  0  0
 21 36  2  0  0  0  0
 22 23  1  0  0  0  0
 22 78  1  0  0  0  0
 22 79  1  0  0  0  0
 23 24  1  0  0  0  0
 23 80  1  0  0  0  0
 23 81  1  0  0  0  0
 24 25  1  0  0  0  0
 24 82  1  0  0  0  0
 24 83  1  0  0  0  0
 25 26  1  0  0  0  0
 25 84  1  0  0  0  0
 25 85  1  0  0  0  0
 26 27  1  0  0  0  0
 26 86  1  0  0  0  0
 26 87  1  0  0  0  0
 27 28  1  0  0  0  0
 27 88  1  0  0  0  0
 27 89  1  0  0  0  0
 28 29  1  0  0  0  0
 28 90  1  0  0  0  0
 28 91  1  0  0  0  0
 30 31  1  0  0  0  0
 30 92  1  0  0  0  0
 30 93  1  0  0  0  0
 31 32  1  0  0  0  0
 31 94  1  6  0  0  0
 32 95  1  0  0  0  0
 32 96  1  0  0  0  0
 33 34  1  0  0  0  0
 33 97  1  0  0  0  0
 33 98  1  0  0  0  0
 34 35  1  0  0  0  0
 34 99  1  1  0  0  0
 35100  1  0  0  0  0
 35101  1  0  0  0  0
 36 37  1  0  0  0  0
 37 38  1  0  0  0  0
 37102  1  0  0  0  0
 37103  1  0  0  0  0
 38 39  1  0  0  0  0
 38104  1  0  0  0  0
 38105  1  0  0  0  0
 39 40  1  0  0  0  0
 39106  1  0  0  0  0
 39107  1  0  0  0  0
 40 41  1  0  0  0  0
 40108  1  0  0  0  0
 40109  1  0  0  0  0
 41 42  1  0  0  0  0
 41110  1  0  0  0  0
 41111  1  0  0  0  0
 42 43  1  0  0  0  0
 42112  1  0  0  0  0
 42113  1  0  0  0  0
 43 44  1  0  0  0  0
 43114  1  0  0  0  0
 43115  1  0  0  0  0
 44 45  2  0  0  0  0
 44116  1  0  0  0  0
 45 46  1  0  0  0  0
 45117  1  0  0  0  0
 46 47  1  0  0  0  0
 46118  1  0  0  0  0
 46119  1  0  0  0  0
 47 48  1  0  0  0  0
 47120  1  0  0  0  0
 47121  1  0  0  0  0
 48 49  1  0  0  0  0
 48122  1  0  0  0  0
 48123  1  0  0  0  0
 49 50  1  0  0  0  0
 49124  1  0  0  0  0
 49125  1  0  0  0  0
 50 51  1  0  0  0  0
 50126  1  0  0  0  0
 50127  1  0  0  0  0
 51 52  1  0  0  0  0
 51128  1  0  0  0  0
 51129  1  0  0  0  0
 52 53  1  0  0  0  0
 52130  1  0  0  0  0
 52131  1  0  0  0  0
 53132  1  0  0  0  0
 53133  1  0  0  0  0
 53134  1  0  0  0  0
M  CHG  1   9  -1
M  END
$$$$