/media/chris/experiments/cd1a-new-docking/inputs/ligands/7sh4_ligand.pdb
 OpenBabel07012320073D

134133  0  0  1  0  0  0  0  0999 V2000
  -53.7444   55.7148   57.2931 C   0  0  0  0  0  0  0  0  0  0  0  0
  -37.9049   59.0864   60.8424 O   0  0  0  0  0  0  0  0  0  0  0  0
  -34.6970   59.9912   62.5780 P   0  0  1  0  0  0  0  0  0  0  0  0
  -52.7667   56.8664   57.3526 C   0  0  0  0  0  0  0  0  0  0  0  0
  -38.3690   58.5038   62.9506 O   0  0  0  0  0  0  0  0  0  0  0  0
  -51.6450   56.7257   56.3411 C   0  0  0  0  0  0  0  0  0  0  0  0
  -35.2304   61.1139   63.5864 O   0  0  0  0  0  0  0  0  0  0  0  0
  -50.6219   57.8473   56.3668 C   0  0  0  0  0  0  0  0  0  0  0  0
  -33.3791   60.4244   62.0659 O   0  5  0  0  0  0  0  0  0  0  0  0
  -49.8974   57.9807   57.6990 C   0  0  0  0  0  0  0  0  0  0  0  0
  -34.8009   58.6760   63.2548 O   0  0  0  0  0  0  0  0  0  0  0  0
  -48.8884   59.1103   57.7310 C   0  0  0  0  0  0  0  0  0  0  0  0
  -35.7239   59.9968   61.3581 O   0  0  0  0  0  0  0  0  0  0  0  0
  -48.1574   59.2280   59.0547 C   0  0  0  0  0  0  0  0  0  0  0  0
  -34.8473   59.6663   58.0614 O   0  0  0  0  0  0  0  0  0  0  0  0
  -47.1508   60.3717   59.1068 C   0  0  0  0  0  0  0  0  0  0  0  0
  -34.9093   57.1002   59.2925 O   0  0  0  0  0  0  0  0  0  0  0  0
  -46.4106   60.4759   60.4238 C   0  0  0  0  0  0  0  0  0  0  0  0
  -38.2720   59.8520   65.2990 O   0  0  0  0  0  0  0  0  0  0  0  0
  -45.4206   61.6214   60.4878 C   0  0  0  0  0  0  0  0  0  0  0  0
  -40.0171   59.9196   63.8811 O   0  0  0  0  0  0  0  0  0  0  0  0
  -44.3523   61.5305   59.4208 C   0  0  0  0  0  0  0  0  0  0  0  0
  -43.5376   60.2664   59.4968 C   0  0  0  0  0  0  0  0  0  0  0  0
  -42.4635   60.1925   58.4393 C   0  0  0  0  0  0  0  0  0  0  0  0
  -41.6523   58.9142   58.5014 C   0  0  0  0  0  0  0  0  0  0  0  0
  -40.9506   58.7222   59.8268 C   0  0  0  0  0  0  0  0  0  0  0  0
  -40.1183   57.4601   59.9108 C   0  0  0  0  0  0  0  0  0  0  0  0
  -39.4418   57.2903   61.2605 C   0  0  0  0  0  0  0  0  0  0  0  0
  -38.5165   58.4143   61.6284 C   0  0  0  0  0  0  0  0  0  0  0  0
  -37.0720   58.9080   63.4380 C   0  0  0  0  0  0  0  0  0  0  0  0
  -37.3490   60.1700   64.2050 C   0  0  2  0  0  0  0  0  0  0  0  0
  -36.0840   60.8130   64.7130 C   0  0  0  0  0  0  0  0  0  0  0  0
  -35.9781   58.7821   60.6234 C   0  0  0  0  0  0  0  0  0  0  0  0
  -34.6738   58.2973   60.0397 C   0  0  2  0  0  0  0  0  0  0  0  0
  -34.0140   59.3362   59.1651 C   0  0  0  0  0  0  0  0  0  0  0  0
  -39.5790   59.7587   64.9875 C   0  0  0  0  0  0  0  0  0  0  0  0
  -40.4161   59.4128   66.1798 C   0  0  0  0  0  0  0  0  0  0  0  0
  -41.8178   60.0040   66.0691 C   0  0  0  0  0  0  0  0  0  0  0  0
  -42.7108   59.7002   67.2608 C   0  0  0  0  0  0  0  0  0  0  0  0
  -44.1149   60.2803   67.1343 C   0  0  0  0  0  0  0  0  0  0  0  0
  -45.0093   59.9969   68.3268 C   0  0  0  0  0  0  0  0  0  0  0  0
  -46.4285   60.5592   68.2061 C   0  0  0  0  0  0  0  0  0  0  0  0
  -47.2440   60.0225   67.0278 C   0  0  0  0  0  0  0  0  0  0  0  0
  -47.4349   58.5373   67.1027 C   0  0  0  0  0  0  0  0  0  0  0  0
  -48.4636   57.8515   66.6434 C   0  0  0  0  0  0  0  0  0  0  0  0
  -49.6607   58.4165   65.9462 C   0  0  0  0  0  0  0  0  0  0  0  0
  -49.8300   57.8593   64.5358 C   0  0  0  0  0  0  0  0  0  0  0  0
  -48.6435   58.1295   63.6273 C   0  0  0  0  0  0  0  0  0  0  0  0
  -47.3443   57.5179   64.1226 C   0  0  0  0  0  0  0  0  0  0  0  0
  -47.3702   56.0040   64.2521 C   0  0  0  0  0  0  0  0  0  0  0  0
  -47.6388   55.2882   62.9371 C   0  0  0  0  0  0  0  0  0  0  0  0
  -48.9575   55.6565   62.2865 C   0  0  0  0  0  0  0  0  0  0  0  0
  -49.1969   54.9183   60.9991 C   0  0  0  0  0  0  0  0  0  0  0  0
  -54.5128   55.8612   58.0231 H   0  0  0  0  0  0  0  0  0  0  0  0
  -53.2295   54.7990   57.4960 H   0  0  0  0  0  0  0  0  0  0  0  0
  -54.1827   55.6690   56.3181 H   0  0  0  0  0  0  0  0  0  0  0  0
  -52.3416   56.9059   58.3337 H   0  0  0  0  0  0  0  0  0  0  0  0
  -53.3038   57.7625   57.1215 H   0  0  0  0  0  0  0  0  0  0  0  0
  -52.0798   56.6938   55.3639 H   0  0  0  0  0  0  0  0  0  0  0  0
  -51.1180   55.8305   56.5974 H   0  0  0  0  0  0  0  0  0  0  0  0
  -51.1251   58.7690   56.1616 H   0  0  0  0  0  0  0  0  0  0  0  0
  -49.8825   57.6144   55.6293 H   0  0  0  0  0  0  0  0  0  0  0  0
  -49.3842   57.0631   57.8981 H   0  0  0  0  0  0  0  0  0  0  0  0
  -50.6387   58.2015   58.4382 H   0  0  0  0  0  0  0  0  0  0  0  0
  -34.1840   58.6476   64.0029 H   0  0  0  0  0  0  0  0  0  0  0  0
  -49.4028   60.0299   57.5448 H   0  0  0  0  0  0  0  0  0  0  0  0
  -48.1537   58.8988   56.9824 H   0  0  0  0  0  0  0  0  0  0  0  0
  -47.6350   58.3114   59.2334 H   0  0  0  0  0  0  0  0  0  0  0  0
  -48.8973   59.4322   59.8002 H   0  0  0  0  0  0  0  0  0  0  0  0
  -34.4072   60.3338   57.5122 H   0  0  0  0  0  0  0  0  0  0  0  0
  -47.6747   61.2898   58.9408 H   0  0  0  0  0  0  0  0  0  0  0  0
  -46.4177   60.1758   58.3523 H   0  0  0  0  0  0  0  0  0  0  0  0
  -35.3330   56.4405   59.8637 H   0  0  0  0  0  0  0  0  0  0  0  0
  -45.8777   59.5618   60.5831 H   0  0  0  0  0  0  0  0  0  0  0  0
  -47.1468   60.6617   61.1777 H   0  0  0  0  0  0  0  0  0  0  0  0
  -44.9476   61.6116   61.4475 H   0  0  0  0  0  0  0  0  0  0  0  0
  -45.9647   62.5280   60.3237 H   0  0  0  0  0  0  0  0  0  0  0  0
  -43.6928   62.3661   59.5291 H   0  0  0  0  0  0  0  0  0  0  0  0
  -44.8506   61.5289   58.4739 H   0  0  0  0  0  0  0  0  0  0  0  0
  -44.1939   59.4300   59.3754 H   0  0  0  0  0  0  0  0  0  0  0  0
  -43.0501   60.2565   60.4493 H   0  0  0  0  0  0  0  0  0  0  0  0
  -41.8009   61.0225   58.5688 H   0  0  0  0  0  0  0  0  0  0  0  0
  -42.9521   60.2133   57.4876 H   0  0  0  0  0  0  0  0  0  0  0  0
  -40.9151   58.9404   57.7263 H   0  0  0  0  0  0  0  0  0  0  0  0
  -42.3328   58.0976   58.3789 H   0  0  0  0  0  0  0  0  0  0  0  0
  -41.6923   58.6870   60.5972 H   0  0  0  0  0  0  0  0  0  0  0  0
  -40.2750   59.5443   59.9392 H   0  0  0  0  0  0  0  0  0  0  0  0
  -39.3643   57.4966   59.1525 H   0  0  0  0  0  0  0  0  0  0  0  0
  -40.7783   56.6290   59.7742 H   0  0  0  0  0  0  0  0  0  0  0  0
  -38.8762   56.3823   61.2410 H   0  0  0  0  0  0  0  0  0  0  0  0
  -40.2191   57.2775   61.9957 H   0  0  0  0  0  0  0  0  0  0  0  0
  -36.4020   59.0962   62.6252 H   0  0  0  0  0  0  0  0  0  0  0  0
  -36.6048   58.1555   64.0382 H   0  0  0  0  0  0  0  0  0  0  0  0
  -37.7985   60.8886   63.5519 H   0  0  0  0  0  0  0  0  0  0  0  0
  -36.3238   61.7163   65.2340 H   0  0  0  0  0  0  0  0  0  0  0  0
  -35.5811   60.1472   65.3829 H   0  0  0  0  0  0  0  0  0  0  0  0
  -36.6768   58.9752   59.8363 H   0  0  0  0  0  0  0  0  0  0  0  0
  -36.3893   58.0382   61.2734 H   0  0  0  0  0  0  0  0  0  0  0  0
  -34.0028   58.1016   60.8499 H   0  0  0  0  0  0  0  0  0  0  0  0
  -33.8315   60.2177   59.7434 H   0  0  0  0  0  0  0  0  0  0  0  0
  -33.0926   58.9386   58.7938 H   0  0  0  0  0  0  0  0  0  0  0  0
  -39.9445   59.7985   67.0594 H   0  0  0  0  0  0  0  0  0  0  0  0
  -40.5040   58.3476   66.2308 H   0  0  0  0  0  0  0  0  0  0  0  0
  -42.2822   59.6074   65.1904 H   0  0  0  0  0  0  0  0  0  0  0  0
  -41.7040   61.0672   66.0296 H   0  0  0  0  0  0  0  0  0  0  0  0
  -42.2542   60.1078   68.1384 H   0  0  0  0  0  0  0  0  0  0  0  0
  -42.8141   58.6365   67.3127 H   0  0  0  0  0  0  0  0  0  0  0  0
  -44.5741   59.8629   66.2625 H   0  0  0  0  0  0  0  0  0  0  0  0
  -44.0066   61.3431   67.0740 H   0  0  0  0  0  0  0  0  0  0  0  0
  -44.5534   60.4246   69.1952 H   0  0  0  0  0  0  0  0  0  0  0  0
  -45.1082   58.9331   68.3861 H   0  0  0  0  0  0  0  0  0  0  0  0
  -46.3559   61.6216   68.1019 H   0  0  0  0  0  0  0  0  0  0  0  0
  -46.9462   60.2508   69.0904 H   0  0  0  0  0  0  0  0  0  0  0  0
  -46.7324   60.2590   66.1182 H   0  0  0  0  0  0  0  0  0  0  0  0
  -48.2104   60.4806   67.0605 H   0  0  0  0  0  0  0  0  0  0  0  0
  -46.6847   57.9963   67.5605 H   0  0  0  0  0  0  0  0  0  0  0  0
  -48.4406   56.8285   66.7776 H   0  0  0  0  0  0  0  0  0  0  0  0
  -49.5527   59.4793   65.8851 H   0  0  0  0  0  0  0  0  0  0  0  0
  -50.5268   58.1420   66.5113 H   0  0  0  0  0  0  0  0  0  0  0  0
  -50.6989   58.3049   64.0984 H   0  0  0  0  0  0  0  0  0  0  0  0
  -49.9187   56.7970   64.6274 H   0  0  0  0  0  0  0  0  0  0  0  0
  -48.5108   59.1885   63.5505 H   0  0  0  0  0  0  0  0  0  0  0  0
  -48.8627   57.6764   62.6830 H   0  0  0  0  0  0  0  0  0  0  0  0
  -47.1253   57.9320   65.0846 H   0  0  0  0  0  0  0  0  0  0  0  0
  -46.6001   57.7482   63.3891 H   0  0  0  0  0  0  0  0  0  0  0  0
  -48.1387   55.7363   64.9468 H   0  0  0  0  0  0  0  0  0  0  0  0
  -46.3997   55.6994   64.5842 H   0  0  0  0  0  0  0  0  0  0  0  0
  -47.6391   54.2344   63.1227 H   0  0  0  0  0  0  0  0  0  0  0  0
  -46.8674   55.5900   62.2599 H   0  0  0  0  0  0  0  0  0  0  0  0
  -48.9572   56.7071   62.0835 H   0  0  0  0  0  0  0  0  0  0  0  0
  -49.7390   55.3841   62.9647 H   0  0  0  0  0  0  0  0  0  0  0  0
  -48.4302   55.1692   60.2962 H   0  0  0  0  0  0  0  0  0  0  0  0
  -50.1505   55.1959   60.6009 H   0  0  0  0  0  0  0  0  0  0  0  0
  -49.1806   53.8645   61.1838 H   0  0  0  0  0  0  0  0  0  0  0  0
  1  4  1  0  0  0  0
  1 54  1  0  0  0  0
  1 55  1  0  0  0  0
  1 56  1  0  0  0  0
  2 29  2  0  0  0  0
  3  7  1  0  0  0  0
  3  9  2  6  0  0  0
  3 11  1  0  0  0  0
  3 13  1  0  0  0  0
  4  6  1  0  0  0  0
  4 57  1  0  0  0  0
  4 58  1  0  0  0  0
  5 29  1  0  0  0  0
  5 30  1  0  0  0  0
  6  8  1  0  0  0  0
  6 59  1  0  0  0  0
  6 60  1  0  0  0  0
  7 32  1  0  0  0  0
  8 10  1  0  0  0  0
  8 61  1  0  0  0  0
  8 62  1  0  0  0  0
 10 12  1  0  0  0  0
 10 63  1  0  0  0  0
 10 64  1  0  0  0  0
 11 65  1  0  0  0  0
 12 14  1  0  0  0  0
 12 66  1  0  0  0  0
 12 67  1  0  0  0  0
 13 33  1  0  0  0  0
 14 16  1  0  0  0  0
 14 68  1  0  0  0  0
 14 69  1  0  0  0  0
 15 35  1  0  0  0  0
 15 70  1  0  0  0  0
 16 18  1  0  0  0  0
 16 71  1  0  0  0  0
 16 72  1  0  0  0  0
 17 34  1  0  0  0  0
 17 73  1  0  0  0  0
 18 20  1  0  0  0  0
 18 74  1  0  0  0  0
 18 75  1  0  0  0  0
 19 31  1  0  0  0  0
 19 36  1  0  0  0  0
 20 22  1  0  0  0  0
 20 76  1  0  0  0  0
 20 77  1  0  0  0  0
 21 36  2  0  0  0  0
 22 23  1  0  0  0  0
 22 78  1  0  0  0  0
 22 79  1  0  0  0  0
 23 24  1  0  0  0  0
 23 80  1  0  0  0  0
 23 81  1  0  0  0  0
 24 25  1  0  0  0  0
 24 82  1  0  0  0  0
 24 83  1  0  0  0  0
 25 26  1  0  0  0  0
 25 84  1  0  0  0  0
 25 85  1  0  0  0  0
 26 27  1  0  0  0  0
 26 86  1  0  0  0  0
 26 87  1  0  0  0  0
 27 28  1  0  0  0  0
 27 88  1  0  0  0  0
 27 89  1  0  0  0  0
 28 29  1  0  0  0  0
 28 90  1  0  0  0  0
 28 91  1  0  0  0  0
 30 31  1  0  0  0  0
 30 92  1  0  0  0  0
 30 93  1  0  0  0  0
 31 32  1  0  0  0  0
 31 94  1  6  0  0  0
 32 95  1  0  0  0  0
 32 96  1  0  0  0  0
 33 34  1  0  0  0  0
 33 97  1  0  0  0  0
 33 98  1  0  0  0  0
 34 35  1  0  0  0  0
 34 99  1  1  0  0  0
 35100  1  0  0  0  0
 35101  1  0  0  0  0
 36 37  1  0  0  0  0
 37 38  1  0  0  0  0
 37102  1  0  0  0  0
 37103  1  0  0  0  0
 38 39  1  0  0  0  0
 38104  1  0  0  0  0
 38105  1  0  0  0  0
 39 40  1  0  0  0  0
 39106  1  0  0  0  0
 39107  1  0  0  0  0
 40 41  1  0  0  0  0
 40108  1  0  0  0  0
 40109  1  0  0  0  0
 41 42  1  0  0  0  0
 41110  1  0  0  0  0
 41111  1  0  0  0  0
 42 43  1  0  0  0  0
 42112  1  0  0  0  0
 42113  1  0  0  0  0
 43 44  1  0  0  0  0
 43114  1  0  0  0  0
 43115  1  0  0  0  0
 44 45  2  0  0  0  0
 44116  1  0  0  0  0
 45 46  1  0  0  0  0
 45117  1  0  0  0  0
 46 47  1  0  0  0  0
 46118  1  0  0  0  0
 46119  1  0  0  0  0
 47 48  1  0  0  0  0
 47120  1  0  0  0  0
 47121  1  0  0  0  0
 48 49  1  0  0  0  0
 48122  1  0  0  0  0
 48123  1  0  0  0  0
 49 50  1  0  0  0  0
 49124  1  0  0  0  0
 49125  1  0  0  0  0
 50 51  1  0  0  0  0
 50126  1  0  0  0  0
 50127  1  0  0  0  0
 51 52  1  0  0  0  0
 51128  1  0  0  0  0
 51129  1  0  0  0  0
 52 53  1  0  0  0  0
 52130  1  0  0  0  0
 52131  1  0  0  0  0
 53132  1  0  0  0  0
 53133  1  0  0  0  0
 53134  1  0  0  0  0
M  CHG  1   9  -1
M  END
$$$$