/media/chris/experiments/cd1a-new-docking/inputs/ligands/7sh4_ligand.pdb
 OpenBabel07012320073D

134133  0  0  1  0  0  0  0  0999 V2000
  -37.7090   52.7062   66.3710 C   0  0  0  0  0  0  0  0  0  0  0  0
  -39.2991   60.4756   62.4545 O   0  0  0  0  0  0  0  0  0  0  0  0
  -33.7887   61.7905   63.7469 P   0  0  1  0  0  0  0  0  0  0  0  0
  -38.8129   53.2237   65.4769 C   0  0  0  0  0  0  0  0  0  0  0  0
  -38.3690   58.5038   62.9506 O   0  0  0  0  0  0  0  0  0  0  0  0
  -38.8728   54.7392   65.4499 C   0  0  0  0  0  0  0  0  0  0  0  0
  -35.2304   61.1139   63.5864 O   0  0  0  0  0  0  0  0  0  0  0  0
  -39.9752   55.3161   64.5799 C   0  0  0  0  0  0  0  0  0  0  0  0
  -33.2354   61.3842   65.0567 O   0  5  0  0  0  0  0  0  0  0  0  0
  -41.3742   54.9032   65.0156 C   0  0  0  0  0  0  0  0  0  0  0  0
  -33.0045   61.5019   62.5219 O   0  0  0  0  0  0  0  0  0  0  0  0
  -42.4741   55.4647   64.1379 C   0  0  0  0  0  0  0  0  0  0  0  0
  -34.0620   63.3608   63.7950 O   0  0  0  0  0  0  0  0  0  0  0  0
  -43.8665   55.0643   64.5863 C   0  0  0  0  0  0  0  0  0  0  0  0
  -37.8473   65.1788   63.0638 O   0  0  0  0  0  0  0  0  0  0  0  0
  -44.9825   55.6085   63.7019 C   0  0  0  0  0  0  0  0  0  0  0  0
  -36.5396   63.6277   65.0609 O   0  0  0  0  0  0  0  0  0  0  0  0
  -44.9072   55.1399   62.2638 C   0  0  0  0  0  0  0  0  0  0  0  0
  -38.2720   59.8520   65.2990 O   0  0  0  0  0  0  0  0  0  0  0  0
  -43.6212   55.5179   61.5568 C   0  0  0  0  0  0  0  0  0  0  0  0
  -36.7804   58.4135   66.1741 O   0  0  0  0  0  0  0  0  0  0  0  0
  -43.5858   55.0499   60.1188 C   0  0  0  0  0  0  0  0  0  0  0  0
  -42.3068   55.4031   59.4068 C   0  0  0  0  0  0  0  0  0  0  0  0
  -42.0440   56.8887   59.3686 C   0  0  0  0  0  0  0  0  0  0  0  0
  -40.7664   57.2498   58.6381 C   0  0  0  0  0  0  0  0  0  0  0  0
  -40.4973   58.7374   58.6162 C   0  0  0  0  0  0  0  0  0  0  0  0
  -40.3385   59.3592   59.9876 C   0  0  0  0  0  0  0  0  0  0  0  0
  -39.1768   58.7699   60.7698 C   0  0  0  0  0  0  0  0  0  0  0  0
  -39.0024   59.3540   62.1421 C   0  0  0  0  0  0  0  0  0  0  0  0
  -37.0720   58.9080   63.4380 C   0  0  0  0  0  0  0  0  0  0  0  0
  -37.3490   60.1700   64.2050 C   0  0  2  0  0  0  0  0  0  0  0  0
  -36.0840   60.8130   64.7130 C   0  0  0  0  0  0  0  0  0  0  0  0
  -35.1954   63.9175   63.0983 C   0  0  0  0  0  0  0  0  0  0  0  0
  -36.4517   63.3070   63.6694 C   0  0  2  0  0  0  0  0  0  0  0  0
  -37.6949   63.7699   62.9484 C   0  0  0  0  0  0  0  0  0  0  0  0
  -37.8515   58.9548   66.2113 C   0  0  0  0  0  0  0  0  0  0  0  0
  -38.8701   58.7278   67.2850 C   0  0  0  0  0  0  0  0  0  0  0  0
  -39.7205   59.9720   67.5207 C   0  0  0  0  0  0  0  0  0  0  0  0
  -40.5084   60.4202   66.3008 C   0  0  0  0  0  0  0  0  0  0  0  0
  -41.3420   61.6738   66.5401 C   0  0  0  0  0  0  0  0  0  0  0  0
  -42.3666   61.5308   67.6501 C   0  0  0  0  0  0  0  0  0  0  0  0
  -43.2232   62.7772   67.8904 C   0  0  0  0  0  0  0  0  0  0  0  0
  -44.2500   62.6546   69.0182 C   0  0  0  0  0  0  0  0  0  0  0  0
  -45.0607   63.9051   69.1826 C   0  0  0  0  0  0  0  0  0  0  0  0
  -46.2019   64.1879   68.5850 C   0  0  0  0  0  0  0  0  0  0  0  0
  -46.9302   63.3133   67.6139 C   0  0  0  0  0  0  0  0  0  0  0  0
  -45.9869   62.4184   66.8152 C   0  0  0  0  0  0  0  0  0  0  0  0
  -46.6963   61.5302   65.8082 C   0  0  0  0  0  0  0  0  0  0  0  0
  -47.7141   60.5917   66.4331 C   0  0  0  0  0  0  0  0  0  0  0  0
  -47.1388   59.6359   67.4650 C   0  0  0  0  0  0  0  0  0  0  0  0
  -46.0502   58.7296   66.9106 C   0  0  0  0  0  0  0  0  0  0  0  0
  -46.4983   57.8520   65.7587 C   0  0  0  0  0  0  0  0  0  0  0  0
  -47.6358   56.9419   66.1294 C   0  0  0  0  0  0  0  0  0  0  0  0
  -37.7093   51.6363   66.3553 H   0  0  0  0  0  0  0  0  0  0  0  0
  -37.8707   53.0482   67.3718 H   0  0  0  0  0  0  0  0  0  0  0  0
  -36.7656   53.0678   66.0186 H   0  0  0  0  0  0  0  0  0  0  0  0
  -39.7491   52.8492   65.8351 H   0  0  0  0  0  0  0  0  0  0  0  0
  -38.6110   52.8874   64.4814 H   0  0  0  0  0  0  0  0  0  0  0  0
  -37.9352   55.1031   65.0846 H   0  0  0  0  0  0  0  0  0  0  0  0
  -39.0845   55.0507   66.4514 H   0  0  0  0  0  0  0  0  0  0  0  0
  -39.8220   54.9832   63.5746 H   0  0  0  0  0  0  0  0  0  0  0  0
  -39.9203   56.3810   64.6687 H   0  0  0  0  0  0  0  0  0  0  0  0
  -41.5318   55.2469   66.0165 H   0  0  0  0  0  0  0  0  0  0  0  0
  -41.4249   53.8373   64.9382 H   0  0  0  0  0  0  0  0  0  0  0  0
  -32.8250   60.5501   62.4697 H   0  0  0  0  0  0  0  0  0  0  0  0
  -42.3247   55.1110   63.1391 H   0  0  0  0  0  0  0  0  0  0  0  0
  -42.4161   56.5311   64.2024 H   0  0  0  0  0  0  0  0  0  0  0  0
  -44.0174   55.4285   65.5811 H   0  0  0  0  0  0  0  0  0  0  0  0
  -43.9163   53.9971   64.5267 H   0  0  0  0  0  0  0  0  0  0  0  0
  -38.6499   65.4567   62.5952 H   0  0  0  0  0  0  0  0  0  0  0  0
  -44.9297   56.6771   63.7115 H   0  0  0  0  0  0  0  0  0  0  0  0
  -45.9041   55.2400   64.1015 H   0  0  0  0  0  0  0  0  0  0  0  0
  -35.7365   63.3260   65.5136 H   0  0  0  0  0  0  0  0  0  0  0  0
  -45.7255   55.5716   61.7264 H   0  0  0  0  0  0  0  0  0  0  0  0
  -44.9450   54.0708   62.2851 H   0  0  0  0  0  0  0  0  0  0  0  0
  -42.7999   55.0757   62.0810 H   0  0  0  0  0  0  0  0  0  0  0  0
  -43.5580   56.5860   61.5506 H   0  0  0  0  0  0  0  0  0  0  0  0
  -44.4018   55.5020   59.5947 H   0  0  0  0  0  0  0  0  0  0  0  0
  -43.6557   53.9823   60.1321 H   0  0  0  0  0  0  0  0  0  0  0  0
  -42.3650   55.0412   58.4015 H   0  0  0  0  0  0  0  0  0  0  0  0
  -41.5031   54.9498   59.9486 H   0  0  0  0  0  0  0  0  0  0  0  0
  -41.9740   57.2478   60.3741 H   0  0  0  0  0  0  0  0  0  0  0  0
  -42.8540   57.3415   58.8358 H   0  0  0  0  0  0  0  0  0  0  0  0
  -40.8411   56.9021   57.6289 H   0  0  0  0  0  0  0  0  0  0  0  0
  -39.9568   56.7863   59.1621 H   0  0  0  0  0  0  0  0  0  0  0  0
  -41.3148   59.2192   58.1218 H   0  0  0  0  0  0  0  0  0  0  0  0
  -39.5663   58.8741   58.1067 H   0  0  0  0  0  0  0  0  0  0  0  0
  -41.2398   59.1998   60.5418 H   0  0  0  0  0  0  0  0  0  0  0  0
  -40.1377   60.4009   59.8480 H   0  0  0  0  0  0  0  0  0  0  0  0
  -38.2777   58.9402   60.2153 H   0  0  0  0  0  0  0  0  0  0  0  0
  -39.3902   57.7298   60.9021 H   0  0  0  0  0  0  0  0  0  0  0  0
  -36.4020   59.0962   62.6252 H   0  0  0  0  0  0  0  0  0  0  0  0
  -36.6048   58.1555   64.0382 H   0  0  0  0  0  0  0  0  0  0  0  0
  -37.7985   60.8886   63.5519 H   0  0  0  0  0  0  0  0  0  0  0  0
  -36.3238   61.7163   65.2340 H   0  0  0  0  0  0  0  0  0  0  0  0
  -35.5811   60.1472   65.3829 H   0  0  0  0  0  0  0  0  0  0  0  0
  -35.1254   63.6909   62.0550 H   0  0  0  0  0  0  0  0  0  0  0  0
  -35.2154   64.9805   63.2188 H   0  0  0  0  0  0  0  0  0  0  0  0
  -36.3924   62.2468   63.5372 H   0  0  0  0  0  0  0  0  0  0  0  0
  -37.6188   63.5084   61.9136 H   0  0  0  0  0  0  0  0  0  0  0  0
  -38.5458   63.2944   63.3897 H   0  0  0  0  0  0  0  0  0  0  0  0
  -38.3664   58.4736   68.1941 H   0  0  0  0  0  0  0  0  0  0  0  0
  -39.5160   57.9339   66.9727 H   0  0  0  0  0  0  0  0  0  0  0  0
  -39.0733   60.7713   67.8160 H   0  0  0  0  0  0  0  0  0  0  0  0
  -40.4349   59.7210   68.2767 H   0  0  0  0  0  0  0  0  0  0  0  0
  -41.1657   59.6267   66.0123 H   0  0  0  0  0  0  0  0  0  0  0  0
  -39.7972   60.6570   65.5372 H   0  0  0  0  0  0  0  0  0  0  0  0
  -41.8587   61.9124   65.6339 H   0  0  0  0  0  0  0  0  0  0  0  0
  -40.6634   62.4439   66.8423 H   0  0  0  0  0  0  0  0  0  0  0  0
  -41.8466   61.3031   68.5571 H   0  0  0  0  0  0  0  0  0  0  0  0
  -43.0379   60.7552   67.3456 H   0  0  0  0  0  0  0  0  0  0  0  0
  -43.7502   62.9962   66.9853 H   0  0  0  0  0  0  0  0  0  0  0  0
  -42.5458   63.5501   68.1883 H   0  0  0  0  0  0  0  0  0  0  0  0
  -43.7341   62.4552   69.9342 H   0  0  0  0  0  0  0  0  0  0  0  0
  -44.9200   61.8586   68.7683 H   0  0  0  0  0  0  0  0  0  0  0  0
  -44.6875   64.6174   69.8294 H   0  0  0  0  0  0  0  0  0  0  0  0
  -46.6332   65.0985   68.8082 H   0  0  0  0  0  0  0  0  0  0  0  0
  -47.4734   63.9344   66.9327 H   0  0  0  0  0  0  0  0  0  0  0  0
  -47.5850   62.6790   68.1741 H   0  0  0  0  0  0  0  0  0  0  0  0
  -45.4532   61.7933   67.5003 H   0  0  0  0  0  0  0  0  0  0  0  0
  -45.3376   63.0635   66.2611 H   0  0  0  0  0  0  0  0  0  0  0  0
  -45.9613   60.9417   65.2999 H   0  0  0  0  0  0  0  0  0  0  0  0
  -47.2321   62.1759   65.1442 H   0  0  0  0  0  0  0  0  0  0  0  0
  -48.1583   60.0118   65.6513 H   0  0  0  0  0  0  0  0  0  0  0  0
  -48.4201   61.2082   66.9492 H   0  0  0  0  0  0  0  0  0  0  0  0
  -47.9323   59.0230   67.8388 H   0  0  0  0  0  0  0  0  0  0  0  0
  -46.6917   60.2325   68.2326 H   0  0  0  0  0  0  0  0  0  0  0  0
  -45.7065   58.0958   67.7012 H   0  0  0  0  0  0  0  0  0  0  0  0
  -45.2827   59.3698   66.5285 H   0  0  0  0  0  0  0  0  0  0  0  0
  -45.6700   57.2530   65.4427 H   0  0  0  0  0  0  0  0  0  0  0  0
  -46.8425   58.4966   64.9770 H   0  0  0  0  0  0  0  0  0  0  0  0
  -47.3240   56.2818   66.9117 H   0  0  0  0  0  0  0  0  0  0  0  0
  -47.9273   56.3688   65.2742 H   0  0  0  0  0  0  0  0  0  0  0  0
  -48.4657   57.5272   66.4663 H   0  0  0  0  0  0  0  0  0  0  0  0
  1  4  1  0  0  0  0
  1 54  1  0  0  0  0
  1 55  1  0  0  0  0
  1 56  1  0  0  0  0
  2 29  2  0  0  0  0
  3  7  1  0  0  0  0
  3  9  2  1  0  0  0
  3 11  1  0  0  0  0
  3 13  1  0  0  0  0
  4  6  1  0  0  0  0
  4 57  1  0  0  0  0
  4 58  1  0  0  0  0
  5 29  1  0  0  0  0
  5 30  1  0  0  0  0
  6  8  1  0  0  0  0
  6 59  1  0  0  0  0
  6 60  1  0  0  0  0
  7 32  1  0  0  0  0
  8 10  1  0  0  0  0
  8 61  1  0  0  0  0
  8 62  1  0  0  0  0
 10 12  1  0  0  0  0
 10 63  1  0  0  0  0
 10 64  1  0  0  0  0
 11 65  1  0  0  0  0
 12 14  1  0  0  0  0
 12 66  1  0  0  0  0
 12 67  1  0  0  0  0
 13 33  1  0  0  0  0
 14 16  1  0  0  0  0
 14 68  1  0  0  0  0
 14 69  1  0  0  0  0
 15 35  1  0  0  0  0
 15 70  1  0  0  0  0
 16 18  1  0  0  0  0
 16 71  1  0  0  0  0
 16 72  1  0  0  0  0
 17 34  1  0  0  0  0
 17 73  1  0  0  0  0
 18 20  1  0  0  0  0
 18 74  1  0  0  0  0
 18 75  1  0  0  0  0
 19 31  1  0  0  0  0
 19 36  1  0  0  0  0
 20 22  1  0  0  0  0
 20 76  1  0  0  0  0
 20 77  1  0  0  0  0
 21 36  2  0  0  0  0
 22 23  1  0  0  0  0
 22 78  1  0  0  0  0
 22 79  1  0  0  0  0
 23 24  1  0  0  0  0
 23 80  1  0  0  0  0
 23 81  1  0  0  0  0
 24 25  1  0  0  0  0
 24 82  1  0  0  0  0
 24 83  1  0  0  0  0
 25 26  1  0  0  0  0
 25 84  1  0  0  0  0
 25 85  1  0  0  0  0
 26 27  1  0  0  0  0
 26 86  1  0  0  0  0
 26 87  1  0  0  0  0
 27 28  1  0  0  0  0
 27 88  1  0  0  0  0
 27 89  1  0  0  0  0
 28 29  1  0  0  0  0
 28 90  1  0  0  0  0
 28 91  1  0  0  0  0
 30 31  1  0  0  0  0
 30 92  1  0  0  0  0
 30 93  1  0  0  0  0
 31 32  1  0  0  0  0
 31 94  1  6  0  0  0
 32 95  1  0  0  0  0
 32 96  1  0  0  0  0
 33 34  1  0  0  0  0
 33 97  1  0  0  0  0
 33 98  1  0  0  0  0
 34 35  1  0  0  0  0
 34 99  1  6  0  0  0
 35100  1  0  0  0  0
 35101  1  0  0  0  0
 36 37  1  0  0  0  0
 37 38  1  0  0  0  0
 37102  1  0  0  0  0
 37103  1  0  0  0  0
 38 39  1  0  0  0  0
 38104  1  0  0  0  0
 38105  1  0  0  0  0
 39 40  1  0  0  0  0
 39106  1  0  0  0  0
 39107  1  0  0  0  0
 40 41  1  0  0  0  0
 40108  1  0  0  0  0
 40109  1  0  0  0  0
 41 42  1  0  0  0  0
 41110  1  0  0  0  0
 41111  1  0  0  0  0
 42 43  1  0  0  0  0
 42112  1  0  0  0  0
 42113  1  0  0  0  0
 43 44  1  0  0  0  0
 43114  1  0  0  0  0
 43115  1  0  0  0  0
 44 45  2  0  0  0  0
 44116  1  0  0  0  0
 45 46  1  0  0  0  0
 45117  1  0  0  0  0
 46 47  1  0  0  0  0
 46118  1  0  0  0  0
 46119  1  0  0  0  0
 47 48  1  0  0  0  0
 47120  1  0  0  0  0
 47121  1  0  0  0  0
 48 49  1  0  0  0  0
 48122  1  0  0  0  0
 48123  1  0  0  0  0
 49 50  1  0  0  0  0
 49124  1  0  0  0  0
 49125  1  0  0  0  0
 50 51  1  0  0  0  0
 50126  1  0  0  0  0
 50127  1  0  0  0  0
 51 52  1  0  0  0  0
 51128  1  0  0  0  0
 51129  1  0  0  0  0
 52 53  1  0  0  0  0
 52130  1  0  0  0  0
 52131  1  0  0  0  0
 53132  1  0  0  0  0
 53133  1  0  0  0  0
 53134  1  0  0  0  0
M  CHG  1   9  -1
M  END
$$$$