/media/chris/experiments/cd1a-new-docking/inputs/ligands/7sh4_ligand.pdb
 OpenBabel07012320073D

134133  0  0  1  0  0  0  0  0999 V2000
  -45.3979   65.2281   59.4722 C   0  0  0  0  0  0  0  0  0  0  0  0
  -34.4809   60.1886   63.6136 O   0  0  0  0  0  0  0  0  0  0  0  0
  -34.0491   60.2433   66.3537 P   0  0  1  0  0  0  0  0  0  0  0  0
  -45.8168   63.8425   59.0359 C   0  0  0  0  0  0  0  0  0  0  0  0
  -36.1511   59.3213   62.4064 O   0  0  0  0  0  0  0  0  0  0  0  0
  -44.6323   62.9686   58.6696 C   0  0  0  0  0  0  0  0  0  0  0  0
  -35.4212   59.8922   65.6081 O   0  0  0  0  0  0  0  0  0  0  0  0
  -43.6450   62.7309   59.7982 C   0  0  0  0  0  0  0  0  0  0  0  0
  -32.9327   59.8051   65.4886 O   0  5  0  0  0  0  0  0  0  0  0  0
  -44.2555   62.0312   61.0045 C   0  0  0  0  0  0  0  0  0  0  0  0
  -34.1055   61.6624   66.7798 O   0  0  0  0  0  0  0  0  0  0  0  0
  -44.8125   60.6574   60.6922 C   0  0  0  0  0  0  0  0  0  0  0  0
  -34.0379   59.3378   67.6662 O   0  0  0  0  0  0  0  0  0  0  0  0
  -43.7679   59.6868   60.1755 C   0  0  0  0  0  0  0  0  0  0  0  0
  -33.8243   62.6612   70.1546 O   0  0  0  0  0  0  0  0  0  0  0  0
  -43.0753   60.1450   58.8971 C   0  0  0  0  0  0  0  0  0  0  0  0
  -36.1412   61.0305   70.1222 O   0  0  0  0  0  0  0  0  0  0  0  0
  -42.0450   59.1658   58.3746 C   0  0  0  0  0  0  0  0  0  0  0  0
  -38.2720   59.8520   65.2990 O   0  0  0  0  0  0  0  0  0  0  0  0
  -40.9230   58.8701   59.3491 C   0  0  0  0  0  0  0  0  0  0  0  0
  -39.8075   59.1219   63.8261 O   0  0  0  0  0  0  0  0  0  0  0  0
  -39.9033   57.9028   58.7901 C   0  0  0  0  0  0  0  0  0  0  0  0
  -38.7900   57.5852   59.7530 C   0  0  0  0  0  0  0  0  0  0  0  0
  -37.7688   56.6328   59.1806 C   0  0  0  0  0  0  0  0  0  0  0  0
  -36.6556   56.2972   60.1522 C   0  0  0  0  0  0  0  0  0  0  0  0
  -35.8842   57.5136   60.6118 C   0  0  0  0  0  0  0  0  0  0  0  0
  -34.7541   57.2053   61.5712 C   0  0  0  0  0  0  0  0  0  0  0  0
  -34.0118   58.4507   62.0254 C   0  0  0  0  0  0  0  0  0  0  0  0
  -34.8698   59.4444   62.7543 C   0  0  0  0  0  0  0  0  0  0  0  0
  -37.0720   58.9080   63.4380 C   0  0  0  0  0  0  0  0  0  0  0  0
  -37.3490   60.1700   64.2050 C   0  0  2  0  0  0  0  0  0  0  0  0
  -36.0840   60.8130   64.7130 C   0  0  0  0  0  0  0  0  0  0  0  0
  -35.0941   59.4656   68.6400 C   0  0  0  0  0  0  0  0  0  0  0  0
  -35.1090   60.8886   69.1417 C   0  0  2  0  0  0  0  0  0  0  0  0
  -33.7791   61.3079   69.7208 C   0  0  0  0  0  0  0  0  0  0  0  0
  -39.4672   59.3329   64.9581 C   0  0  0  0  0  0  0  0  0  0  0  0
  -40.3113   59.0340   66.1581 C   0  0  0  0  0  0  0  0  0  0  0  0
  -41.6203   59.8165   66.1295 C   0  0  0  0  0  0  0  0  0  0  0  0
  -42.5140   59.5670   67.3333 C   0  0  0  0  0  0  0  0  0  0  0  0
  -42.9188   58.1067   67.4999 C   0  0  0  0  0  0  0  0  0  0  0  0
  -43.6737   57.5365   66.3136 C   0  0  0  0  0  0  0  0  0  0  0  0
  -44.1017   56.0750   66.4740 C   0  0  0  0  0  0  0  0  0  0  0  0
  -42.9591   55.0825   66.6998 C   0  0  0  0  0  0  0  0  0  0  0  0
  -41.9729   55.0901   65.5705 C   0  0  0  0  0  0  0  0  0  0  0  0
  -42.0086   54.3362   64.4889 C   0  0  0  0  0  0  0  0  0  0  0  0
  -43.0482   53.3115   64.1612 C   0  0  0  0  0  0  0  0  0  0  0  0
  -43.2610   53.1579   62.6580 C   0  0  0  0  0  0  0  0  0  0  0  0
  -43.6975   54.4396   61.9702 C   0  0  0  0  0  0  0  0  0  0  0  0
  -43.9258   54.2829   60.4767 C   0  0  0  0  0  0  0  0  0  0  0  0
  -44.3470   55.5589   59.7668 C   0  0  0  0  0  0  0  0  0  0  0  0
  -44.5857   55.3722   58.2763 C   0  0  0  0  0  0  0  0  0  0  0  0
  -44.9905   56.6383   57.5477 C   0  0  0  0  0  0  0  0  0  0  0  0
  -43.9472   57.7172   57.6331 C   0  0  0  0  0  0  0  0  0  0  0  0
  -46.2665   65.8023   59.7186 H   0  0  0  0  0  0  0  0  0  0  0  0
  -44.8674   65.7076   58.6763 H   0  0  0  0  0  0  0  0  0  0  0  0
  -44.7633   65.1551   60.3307 H   0  0  0  0  0  0  0  0  0  0  0  0
  -46.4564   63.9298   58.1825 H   0  0  0  0  0  0  0  0  0  0  0  0
  -46.3213   63.3801   59.8585 H   0  0  0  0  0  0  0  0  0  0  0  0
  -44.1092   63.4377   57.8626 H   0  0  0  0  0  0  0  0  0  0  0  0
  -45.0325   62.0103   58.4118 H   0  0  0  0  0  0  0  0  0  0  0  0
  -43.2594   63.6773   60.1153 H   0  0  0  0  0  0  0  0  0  0  0  0
  -42.8803   62.0874   59.4159 H   0  0  0  0  0  0  0  0  0  0  0  0
  -45.0499   62.6403   61.3824 H   0  0  0  0  0  0  0  0  0  0  0  0
  -43.4705   61.8962   61.7190 H   0  0  0  0  0  0  0  0  0  0  0  0
  -34.1133   62.2350   65.9969 H   0  0  0  0  0  0  0  0  0  0  0  0
  -45.5755   60.7617   59.9493 H   0  0  0  0  0  0  0  0  0  0  0  0
  -45.1919   60.2548   61.6081 H   0  0  0  0  0  0  0  0  0  0  0  0
  -44.2461   58.7494   59.9818 H   0  0  0  0  0  0  0  0  0  0  0  0
  -43.0117   59.6153   60.9291 H   0  0  0  0  0  0  0  0  0  0  0  0
  -32.9626   62.9117   70.5228 H   0  0  0  0  0  0  0  0  0  0  0  0
  -42.5863   61.0762   59.0937 H   0  0  0  0  0  0  0  0  0  0  0  0
  -43.8327   60.2303   58.1461 H   0  0  0  0  0  0  0  0  0  0  0  0
  -36.9901   60.7587   69.7396 H   0  0  0  0  0  0  0  0  0  0  0  0
  -41.6168   59.5727   57.4824 H   0  0  0  0  0  0  0  0  0  0  0  0
  -42.5565   58.2418   58.2032 H   0  0  0  0  0  0  0  0  0  0  0  0
  -41.3438   58.4481   60.2378 H   0  0  0  0  0  0  0  0  0  0  0  0
  -40.4178   59.7919   59.5493 H   0  0  0  0  0  0  0  0  0  0  0  0
  -39.4766   58.3320   57.9077 H   0  0  0  0  0  0  0  0  0  0  0  0
  -40.4160   56.9859   58.5863 H   0  0  0  0  0  0  0  0  0  0  0  0
  -39.2138   57.1436   60.6306 H   0  0  0  0  0  0  0  0  0  0  0  0
  -38.2846   58.5027   59.9718 H   0  0  0  0  0  0  0  0  0  0  0  0
  -37.3369   57.0803   58.3098 H   0  0  0  0  0  0  0  0  0  0  0  0
  -38.2781   55.7198   58.9524 H   0  0  0  0  0  0  0  0  0  0  0  0
  -35.9762   55.6240   59.6726 H   0  0  0  0  0  0  0  0  0  0  0  0
  -37.1080   55.8600   61.0177 H   0  0  0  0  0  0  0  0  0  0  0  0
  -36.5659   58.1791   61.0989 H   0  0  0  0  0  0  0  0  0  0  0  0
  -35.4384   57.9430   59.7390 H   0  0  0  0  0  0  0  0  0  0  0  0
  -34.0604   56.5524   61.0840 H   0  0  0  0  0  0  0  0  0  0  0  0
  -35.1834   56.7511   62.4397 H   0  0  0  0  0  0  0  0  0  0  0  0
  -33.6013   58.9309   61.1618 H   0  0  0  0  0  0  0  0  0  0  0  0
  -33.2604   58.1276   62.7152 H   0  0  0  0  0  0  0  0  0  0  0  0
  -36.6274   58.1683   64.0706 H   0  0  0  0  0  0  0  0  0  0  0  0
  -37.9610   58.4631   63.0423 H   0  0  0  0  0  0  0  0  0  0  0  0
  -37.7985   60.8886   63.5519 H   0  0  0  0  0  0  0  0  0  0  0  0
  -35.4401   61.0403   63.8892 H   0  0  0  0  0  0  0  0  0  0  0  0
  -36.3193   61.7188   65.2317 H   0  0  0  0  0  0  0  0  0  0  0  0
  -34.9165   58.7964   69.4558 H   0  0  0  0  0  0  0  0  0  0  0  0
  -36.0363   59.2226   68.1948 H   0  0  0  0  0  0  0  0  0  0  0  0
  -35.3007   61.5303   68.3072 H   0  0  0  0  0  0  0  0  0  0  0  0
  -33.5452   60.6794   70.5546 H   0  0  0  0  0  0  0  0  0  0  0  0
  -33.0291   61.2142   68.9635 H   0  0  0  0  0  0  0  0  0  0  0  0
  -39.7672   59.2987   67.0406 H   0  0  0  0  0  0  0  0  0  0  0  0
  -40.5442   57.9897   66.1532 H   0  0  0  0  0  0  0  0  0  0  0  0
  -42.1588   59.5400   65.2472 H   0  0  0  0  0  0  0  0  0  0  0  0
  -41.3618   60.8547   66.1448 H   0  0  0  0  0  0  0  0  0  0  0  0
  -43.4020   60.1537   67.2229 H   0  0  0  0  0  0  0  0  0  0  0  0
  -41.9527   59.8384   68.2028 H   0  0  0  0  0  0  0  0  0  0  0  0
  -43.5426   58.0271   68.3656 H   0  0  0  0  0  0  0  0  0  0  0  0
  -42.0139   57.5430   67.5910 H   0  0  0  0  0  0  0  0  0  0  0  0
  -43.0438   57.6073   65.4516 H   0  0  0  0  0  0  0  0  0  0  0  0
  -44.5737   58.1082   66.2233 H   0  0  0  0  0  0  0  0  0  0  0  0
  -44.6229   55.7833   65.5862 H   0  0  0  0  0  0  0  0  0  0  0  0
  -44.7060   56.0377   67.3563 H   0  0  0  0  0  0  0  0  0  0  0  0
  -43.3699   54.0989   66.7923 H   0  0  0  0  0  0  0  0  0  0  0  0
  -42.4420   55.3731   67.5904 H   0  0  0  0  0  0  0  0  0  0  0  0
  -41.1856   55.7529   65.6474 H   0  0  0  0  0  0  0  0  0  0  0  0
  -41.2476   54.4654   63.8040 H   0  0  0  0  0  0  0  0  0  0  0  0
  -43.9737   53.6050   64.6109 H   0  0  0  0  0  0  0  0  0  0  0  0
  -42.7089   52.3701   64.5402 H   0  0  0  0  0  0  0  0  0  0  0  0
  -44.0139   52.4149   62.4974 H   0  0  0  0  0  0  0  0  0  0  0  0
  -42.3180   52.8810   62.2350 H   0  0  0  0  0  0  0  0  0  0  0  0
  -42.9388   55.1790   62.1204 H   0  0  0  0  0  0  0  0  0  0  0  0
  -44.6345   54.7231   62.4020 H   0  0  0  0  0  0  0  0  0  0  0  0
  -44.6921   53.5506   60.3306 H   0  0  0  0  0  0  0  0  0  0  0  0
  -42.9861   53.9950   60.0535 H   0  0  0  0  0  0  0  0  0  0  0  0
  -43.5764   56.2897   59.8977 H   0  0  0  0  0  0  0  0  0  0  0  0
  -45.2760   55.8679   60.1986 H   0  0  0  0  0  0  0  0  0  0  0  0
  -45.3638   54.6488   58.1492 H   0  0  0  0  0  0  0  0  0  0  0  0
  -43.6544   55.0586   57.8529 H   0  0  0  0  0  0  0  0  0  0  0  0
  -45.8984   57.0056   57.9786 H   0  0  0  0  0  0  0  0  0  0  0  0
  -45.1142   56.3903   56.5142 H   0  0  0  0  0  0  0  0  0  0  0  0
  -43.7987   57.9895   58.6571 H   0  0  0  0  0  0  0  0  0  0  0  0
  -44.2732   58.5732   57.0801 H   0  0  0  0  0  0  0  0  0  0  0  0
  -43.0270   57.3568   57.2228 H   0  0  0  0  0  0  0  0  0  0  0  0
  1  4  1  0  0  0  0
  1 54  1  0  0  0  0
  1 55  1  0  0  0  0
  1 56  1  0  0  0  0
  2 29  2  0  0  0  0
  3  7  1  0  0  0  0
  3  9  2  6  0  0  0
  3 11  1  0  0  0  0
  3 13  1  0  0  0  0
  4  6  1  0  0  0  0
  4 57  1  0  0  0  0
  4 58  1  0  0  0  0
  5 29  1  0  0  0  0
  5 30  1  0  0  0  0
  6  8  1  0  0  0  0
  6 59  1  0  0  0  0
  6 60  1  0  0  0  0
  7 32  1  0  0  0  0
  8 10  1  0  0  0  0
  8 61  1  0  0  0  0
  8 62  1  0  0  0  0
 10 12  1  0  0  0  0
 10 63  1  0  0  0  0
 10 64  1  0  0  0  0
 11 65  1  0  0  0  0
 12 14  1  0  0  0  0
 12 66  1  0  0  0  0
 12 67  1  0  0  0  0
 13 33  1  0  0  0  0
 14 16  1  0  0  0  0
 14 68  1  0  0  0  0
 14 69  1  0  0  0  0
 15 35  1  0  0  0  0
 15 70  1  0  0  0  0
 16 18  1  0  0  0  0
 16 71  1  0  0  0  0
 16 72  1  0  0  0  0
 17 34  1  0  0  0  0
 17 73  1  0  0  0  0
 18 20  1  0  0  0  0
 18 74  1  0  0  0  0
 18 75  1  0  0  0  0
 19 31  1  0  0  0  0
 19 36  1  0  0  0  0
 20 22  1  0  0  0  0
 20 76  1  0  0  0  0
 20 77  1  0  0  0  0
 21 36  2  0  0  0  0
 22 23  1  0  0  0  0
 22 78  1  0  0  0  0
 22 79  1  0  0  0  0
 23 24  1  0  0  0  0
 23 80  1  0  0  0  0
 23 81  1  0  0  0  0
 24 25  1  0  0  0  0
 24 82  1  0  0  0  0
 24 83  1  0  0  0  0
 25 26  1  0  0  0  0
 25 84  1  0  0  0  0
 25 85  1  0  0  0  0
 26 27  1  0  0  0  0
 26 86  1  0  0  0  0
 26 87  1  0  0  0  0
 27 28  1  0  0  0  0
 27 88  1  0  0  0  0
 27 89  1  0  0  0  0
 28 29  1  0  0  0  0
 28 90  1  0  0  0  0
 28 91  1  0  0  0  0
 30 31  1  0  0  0  0
 30 92  1  0  0  0  0
 30 93  1  0  0  0  0
 31 32  1  0  0  0  0
 31 94  1  6  0  0  0
 32 95  1  0  0  0  0
 32 96  1  0  0  0  0
 33 34  1  0  0  0  0
 33 97  1  0  0  0  0
 33 98  1  0  0  0  0
 34 35  1  0  0  0  0
 34 99  1  6  0  0  0
 35100  1  0  0  0  0
 35101  1  0  0  0  0
 36 37  1  0  0  0  0
 37 38  1  0  0  0  0
 37102  1  0  0  0  0
 37103  1  0  0  0  0
 38 39  1  0  0  0  0
 38104  1  0  0  0  0
 38105  1  0  0  0  0
 39 40  1  0  0  0  0
 39106  1  0  0  0  0
 39107  1  0  0  0  0
 40 41  1  0  0  0  0
 40108  1  0  0  0  0
 40109  1  0  0  0  0
 41 42  1  0  0  0  0
 41110  1  0  0  0  0
 41111  1  0  0  0  0
 42 43  1  0  0  0  0
 42112  1  0  0  0  0
 42113  1  0  0  0  0
 43 44  1  0  0  0  0
 43114  1  0  0  0  0
 43115  1  0  0  0  0
 44 45  2  0  0  0  0
 44116  1  0  0  0  0
 45 46  1  0  0  0  0
 45117  1  0  0  0  0
 46 47  1  0  0  0  0
 46118  1  0  0  0  0
 46119  1  0  0  0  0
 47 48  1  0  0  0  0
 47120  1  0  0  0  0
 47121  1  0  0  0  0
 48 49  1  0  0  0  0
 48122  1  0  0  0  0
 48123  1  0  0  0  0
 49 50  1  0  0  0  0
 49124  1  0  0  0  0
 49125  1  0  0  0  0
 50 51  1  0  0  0  0
 50126  1  0  0  0  0
 50127  1  0  0  0  0
 51 52  1  0  0  0  0
 51128  1  0  0  0  0
 51129  1  0  0  0  0
 52 53  1  0  0  0  0
 52130  1  0  0  0  0
 52131  1  0  0  0  0
 53132  1  0  0  0  0
 53133  1  0  0  0  0
 53134  1  0  0  0  0
M  CHG  1   9  -1
M  END
$$$$