/media/chris/experiments/cd1a-new-docking/inputs/ligands/7sh4_ligand.pdb
 OpenBabel07012320073D

134133  0  0  1  0  0  0  0  0999 V2000
  -38.6261   61.0921   54.0781 C   0  0  0  0  0  0  0  0  0  0  0  0
  -38.7576   57.1691   64.7019 O   0  0  0  0  0  0  0  0  0  0  0  0
  -34.0491   60.2433   66.3537 P   0  0  1  0  0  0  0  0  0  0  0  0
  -39.8034   60.1820   54.3460 C   0  0  0  0  0  0  0  0  0  0  0  0
  -38.3690   58.5038   62.9506 O   0  0  0  0  0  0  0  0  0  0  0  0
  -39.9509   59.8452   55.8176 C   0  0  0  0  0  0  0  0  0  0  0  0
  -35.4212   59.8922   65.6081 O   0  0  0  0  0  0  0  0  0  0  0  0
  -41.1087   58.9190   56.1444 C   0  0  0  0  0  0  0  0  0  0  0  0
  -33.2993   58.9839   66.5499 O   0  5  0  0  0  0  0  0  0  0  0  0
  -41.0114   57.5593   55.4668 C   0  0  0  0  0  0  0  0  0  0  0  0
  -33.3962   61.3541   65.6199 O   0  0  0  0  0  0  0  0  0  0  0  0
  -39.7758   56.7738   55.8561 C   0  0  0  0  0  0  0  0  0  0  0  0
  -34.4765   60.7892   67.7897 O   0  0  0  0  0  0  0  0  0  0  0  0
  -39.6988   56.4680   57.3396 C   0  0  0  0  0  0  0  0  0  0  0  0
  -32.0337   61.0838   68.2395 O   0  0  0  0  0  0  0  0  0  0  0  0
  -40.8608   55.6299   57.8604 C   0  0  0  0  0  0  0  0  0  0  0  0
  -33.6558   64.3451   67.8431 O   0  0  0  0  0  0  0  0  0  0  0  0
  -40.7895   55.3407   59.3452 C   0  0  0  0  0  0  0  0  0  0  0  0
  -38.2720   59.8520   65.2990 O   0  0  0  0  0  0  0  0  0  0  0  0
  -41.9331   54.4937   59.8658 C   0  0  0  0  0  0  0  0  0  0  0  0
  -37.0574   60.9578   66.8359 O   0  0  0  0  0  0  0  0  0  0  0  0
  -43.2850   55.1317   59.6348 C   0  0  0  0  0  0  0  0  0  0  0  0
  -43.4292   56.4802   60.2892 C   0  0  0  0  0  0  0  0  0  0  0  0
  -43.2408   56.4325   61.7858 C   0  0  0  0  0  0  0  0  0  0  0  0
  -43.4018   57.7847   62.4505 C   0  0  0  0  0  0  0  0  0  0  0  0
  -42.4241   58.8171   61.9368 C   0  0  0  0  0  0  0  0  0  0  0  0
  -40.9694   58.4421   62.1262 C   0  0  0  0  0  0  0  0  0  0  0  0
  -40.6044   58.2192   63.5841 C   0  0  0  0  0  0  0  0  0  0  0  0
  -39.1632   57.8617   63.8078 C   0  0  0  0  0  0  0  0  0  0  0  0
  -37.0720   58.9080   63.4380 C   0  0  0  0  0  0  0  0  0  0  0  0
  -37.3490   60.1700   64.2050 C   0  0  2  0  0  0  0  0  0  0  0  0
  -36.0840   60.8130   64.7130 C   0  0  0  0  0  0  0  0  0  0  0  0
  -34.7117   62.1986   67.9851 C   0  0  0  0  0  0  0  0  0  0  0  0
  -33.4464   62.9446   67.6393 C   0  0  2  0  0  0  0  0  0  0  0  0
  -32.2615   62.4719   68.4469 C   0  0  0  0  0  0  0  0  0  0  0  0
  -37.8399   60.0926   66.5518 C   0  0  0  0  0  0  0  0  0  0  0  0
  -38.4651   59.1659   67.5480 C   0  0  0  0  0  0  0  0  0  0  0  0
  -37.6309   57.9028   67.7365 C   0  0  0  0  0  0  0  0  0  0  0  0
  -38.2251   56.9137   68.7257 C   0  0  0  0  0  0  0  0  0  0  0  0
  -38.4114   57.4885   70.1253 C   0  0  0  0  0  0  0  0  0  0  0  0
  -38.9885   56.5035   71.1249 C   0  0  0  0  0  0  0  0  0  0  0  0
  -39.1971   57.0723   72.5314 C   0  0  0  0  0  0  0  0  0  0  0  0
  -37.9336   57.5992   73.2151 C   0  0  0  0  0  0  0  0  0  0  0  0
  -38.2130   58.1232   74.5918 C   0  0  0  0  0  0  0  0  0  0  0  0
  -38.5363   59.3610   74.9125 C   0  0  0  0  0  0  0  0  0  0  0  0
  -38.6939   60.5064   73.9631 C   0  0  0  0  0  0  0  0  0  0  0  0
  -40.1229   60.6410   73.4451 C   0  0  0  0  0  0  0  0  0  0  0  0
  -41.1468   60.8889   74.5388 C   0  0  0  0  0  0  0  0  0  0  0  0
  -42.5716   61.0060   74.0253 C   0  0  0  0  0  0  0  0  0  0  0  0
  -43.0880   59.7668   73.3131 C   0  0  0  0  0  0  0  0  0  0  0  0
  -44.5099   59.9153   72.7937 C   0  0  0  0  0  0  0  0  0  0  0  0
  -45.0487   58.6828   72.0948 C   0  0  0  0  0  0  0  0  0  0  0  0
  -46.4486   58.8713   71.5804 C   0  0  0  0  0  0  0  0  0  0  0  0
  -38.5663   61.2986   53.0299 H   0  0  0  0  0  0  0  0  0  0  0  0
  -37.7248   60.6132   54.3993 H   0  0  0  0  0  0  0  0  0  0  0  0
  -38.7542   62.0084   54.6154 H   0  0  0  0  0  0  0  0  0  0  0  0
  -39.6671   59.2734   53.7975 H   0  0  0  0  0  0  0  0  0  0  0  0
  -40.6898   60.6964   54.0386 H   0  0  0  0  0  0  0  0  0  0  0  0
  -40.0931   60.7589   56.3559 H   0  0  0  0  0  0  0  0  0  0  0  0
  -39.0594   59.3246   56.0989 H   0  0  0  0  0  0  0  0  0  0  0  0
  -42.0171   59.3892   55.8304 H   0  0  0  0  0  0  0  0  0  0  0  0
  -41.0839   58.7460   57.2001 H   0  0  0  0  0  0  0  0  0  0  0  0
  -40.9966   57.7097   54.4075 H   0  0  0  0  0  0  0  0  0  0  0  0
  -41.8587   56.9889   55.7854 H   0  0  0  0  0  0  0  0  0  0  0  0
  -33.1263   61.0462   64.7406 H   0  0  0  0  0  0  0  0  0  0  0  0
  -38.9120   57.3425   55.5818 H   0  0  0  0  0  0  0  0  0  0  0  0
  -39.8229   55.8363   55.3425 H   0  0  0  0  0  0  0  0  0  0  0  0
  -39.6861   57.3948   57.8741 H   0  0  0  0  0  0  0  0  0  0  0  0
  -38.8093   55.8929   57.4916 H   0  0  0  0  0  0  0  0  0  0  0  0
  -31.2700   60.7994   68.7655 H   0  0  0  0  0  0  0  0  0  0  0  0
  -40.8663   54.6977   57.3352 H   0  0  0  0  0  0  0  0  0  0  0  0
  -41.7525   56.1981   57.6964 H   0  0  0  0  0  0  0  0  0  0  0  0
  -34.4187   64.6375   67.3201 H   0  0  0  0  0  0  0  0  0  0  0  0
  -40.7960   56.2732   59.8699 H   0  0  0  0  0  0  0  0  0  0  0  0
  -39.8921   54.7812   59.5079 H   0  0  0  0  0  0  0  0  0  0  0  0
  -41.7992   54.3468   60.9172 H   0  0  0  0  0  0  0  0  0  0  0  0
  -41.9178   53.5668   59.3314 H   0  0  0  0  0  0  0  0  0  0  0  0
  -44.0385   54.4816   60.0278 H   0  0  0  0  0  0  0  0  0  0  0  0
  -43.3886   55.2795   58.5801 H   0  0  0  0  0  0  0  0  0  0  0  0
  -44.4085   56.8574   60.0807 H   0  0  0  0  0  0  0  0  0  0  0  0
  -42.6641   57.1130   59.8903 H   0  0  0  0  0  0  0  0  0  0  0  0
  -42.2570   56.0665   61.9933 H   0  0  0  0  0  0  0  0  0  0  0  0
  -44.0000   55.7909   62.1818 H   0  0  0  0  0  0  0  0  0  0  0  0
  -43.2511   57.6669   63.5033 H   0  0  0  0  0  0  0  0  0  0  0  0
  -44.3865   58.1367   62.2242 H   0  0  0  0  0  0  0  0  0  0  0  0
  -42.6038   59.7363   62.4542 H   0  0  0  0  0  0  0  0  0  0  0  0
  -42.5865   58.8967   60.8822 H   0  0  0  0  0  0  0  0  0  0  0  0
  -40.3595   59.2308   61.7378 H   0  0  0  0  0  0  0  0  0  0  0  0
  -40.8039   57.5207   61.6080 H   0  0  0  0  0  0  0  0  0  0  0  0
  -41.2108   57.4238   63.9645 H   0  0  0  0  0  0  0  0  0  0  0  0
  -40.7743   59.1466   64.0899 H   0  0  0  0  0  0  0  0  0  0  0  0
  -36.4020   59.0962   62.6252 H   0  0  0  0  0  0  0  0  0  0  0  0
  -36.6048   58.1555   64.0382 H   0  0  0  0  0  0  0  0  0  0  0  0
  -37.7985   60.8886   63.5519 H   0  0  0  0  0  0  0  0  0  0  0  0
  -35.4401   61.0403   63.8892 H   0  0  0  0  0  0  0  0  0  0  0  0
  -36.3193   61.7188   65.2317 H   0  0  0  0  0  0  0  0  0  0  0  0
  -34.9726   62.3834   69.0063 H   0  0  0  0  0  0  0  0  0  0  0  0
  -35.5153   62.5276   67.3599 H   0  0  0  0  0  0  0  0  0  0  0  0
  -33.2197   62.7502   66.6118 H   0  0  0  0  0  0  0  0  0  0  0  0
  -31.3919   63.0191   68.1480 H   0  0  0  0  0  0  0  0  0  0  0  0
  -32.4647   62.6360   69.4845 H   0  0  0  0  0  0  0  0  0  0  0  0
  -39.4398   58.8906   67.2028 H   0  0  0  0  0  0  0  0  0  0  0  0
  -38.5233   59.6733   68.4882 H   0  0  0  0  0  0  0  0  0  0  0  0
  -36.6613   58.1888   68.0873 H   0  0  0  0  0  0  0  0  0  0  0  0
  -37.5958   57.4096   66.7876 H   0  0  0  0  0  0  0  0  0  0  0  0
  -37.5732   56.0678   68.7914 H   0  0  0  0  0  0  0  0  0  0  0  0
  -39.1966   56.6512   68.3622 H   0  0  0  0  0  0  0  0  0  0  0  0
  -39.0725   58.3272   70.0593 H   0  0  0  0  0  0  0  0  0  0  0  0
  -37.4390   57.7574   70.4816 H   0  0  0  0  0  0  0  0  0  0  0  0
  -38.3202   55.6710   71.1972 H   0  0  0  0  0  0  0  0  0  0  0  0
  -39.9573   56.2331   70.7600 H   0  0  0  0  0  0  0  0  0  0  0  0
  -39.6064   56.2969   73.1446 H   0  0  0  0  0  0  0  0  0  0  0  0
  -39.8465   57.9150   72.4175 H   0  0  0  0  0  0  0  0  0  0  0  0
  -37.5245   58.3900   72.6216 H   0  0  0  0  0  0  0  0  0  0  0  0
  -37.2449   56.7854   73.3062 H   0  0  0  0  0  0  0  0  0  0  0  0
  -38.1456   57.4462   75.3677 H   0  0  0  0  0  0  0  0  0  0  0  0
  -38.6955   59.5580   75.9130 H   0  0  0  0  0  0  0  0  0  0  0  0
  -38.0395   60.3547   73.1302 H   0  0  0  0  0  0  0  0  0  0  0  0
  -38.4532   61.4044   74.4928 H   0  0  0  0  0  0  0  0  0  0  0  0
  -40.3844   59.7370   72.9359 H   0  0  0  0  0  0  0  0  0  0  0  0
  -40.1426   61.4934   72.7987 H   0  0  0  0  0  0  0  0  0  0  0  0
  -40.8923   61.7994   75.0400 H   0  0  0  0  0  0  0  0  0  0  0  0
  -41.1182   60.0420   75.1922 H   0  0  0  0  0  0  0  0  0  0  0  0
  -42.6136   61.8271   73.3405 H   0  0  0  0  0  0  0  0  0  0  0  0
  -43.1944   61.1455   74.8841 H   0  0  0  0  0  0  0  0  0  0  0  0
  -43.0617   58.9460   73.9990 H   0  0  0  0  0  0  0  0  0  0  0  0
  -42.4574   59.6055   72.4638 H   0  0  0  0  0  0  0  0  0  0  0  0
  -44.5305   60.7300   72.1004 H   0  0  0  0  0  0  0  0  0  0  0  0
  -45.1331   60.0812   73.6476 H   0  0  0  0  0  0  0  0  0  0  0  0
  -45.0459   57.8677   72.7880 H   0  0  0  0  0  0  0  0  0  0  0  0
  -44.4188   58.4886   71.2520 H   0  0  0  0  0  0  0  0  0  0  0  0
  -47.1066   59.0681   72.4009 H   0  0  0  0  0  0  0  0  0  0  0  0
  -46.7652   57.9833   71.0743 H   0  0  0  0  0  0  0  0  0  0  0  0
  -46.4703   59.6967   70.8998 H   0  0  0  0  0  0  0  0  0  0  0  0
  1  4  1  0  0  0  0
  1 54  1  0  0  0  0
  1 55  1  0  0  0  0
  1 56  1  0  0  0  0
  2 29  2  0  0  0  0
  3  7  1  0  0  0  0
  3  9  2  1  0  0  0
  3 11  1  0  0  0  0
  3 13  1  0  0  0  0
  4  6  1  0  0  0  0
  4 57  1  0  0  0  0
  4 58  1  0  0  0  0
  5 29  1  0  0  0  0
  5 30  1  0  0  0  0
  6  8  1  0  0  0  0
  6 59  1  0  0  0  0
  6 60  1  0  0  0  0
  7 32  1  0  0  0  0
  8 10  1  0  0  0  0
  8 61  1  0  0  0  0
  8 62  1  0  0  0  0
 10 12  1  0  0  0  0
 10 63  1  0  0  0  0
 10 64  1  0  0  0  0
 11 65  1  0  0  0  0
 12 14  1  0  0  0  0
 12 66  1  0  0  0  0
 12 67  1  0  0  0  0
 13 33  1  0  0  0  0
 14 16  1  0  0  0  0
 14 68  1  0  0  0  0
 14 69  1  0  0  0  0
 15 35  1  0  0  0  0
 15 70  1  0  0  0  0
 16 18  1  0  0  0  0
 16 71  1  0  0  0  0
 16 72  1  0  0  0  0
 17 34  1  0  0  0  0
 17 73  1  0  0  0  0
 18 20  1  0  0  0  0
 18 74  1  0  0  0  0
 18 75  1  0  0  0  0
 19 31  1  0  0  0  0
 19 36  1  0  0  0  0
 20 22  1  0  0  0  0
 20 76  1  0  0  0  0
 20 77  1  0  0  0  0
 21 36  2  0  0  0  0
 22 23  1  0  0  0  0
 22 78  1  0  0  0  0
 22 79  1  0  0  0  0
 23 24  1  0  0  0  0
 23 80  1  0  0  0  0
 23 81  1  0  0  0  0
 24 25  1  0  0  0  0
 24 82  1  0  0  0  0
 24 83  1  0  0  0  0
 25 26  1  0  0  0  0
 25 84  1  0  0  0  0
 25 85  1  0  0  0  0
 26 27  1  0  0  0  0
 26 86  1  0  0  0  0
 26 87  1  0  0  0  0
 27 28  1  0  0  0  0
 27 88  1  0  0  0  0
 27 89  1  0  0  0  0
 28 29  1  0  0  0  0
 28 90  1  0  0  0  0
 28 91  1  0  0  0  0
 30 31  1  0  0  0  0
 30 92  1  0  0  0  0
 30 93  1  0  0  0  0
 31 32  1  0  0  0  0
 31 94  1  6  0  0  0
 32 95  1  0  0  0  0
 32 96  1  0  0  0  0
 33 34  1  0  0  0  0
 33 97  1  0  0  0  0
 33 98  1  0  0  0  0
 34 35  1  0  0  0  0
 34 99  1  6  0  0  0
 35100  1  0  0  0  0
 35101  1  0  0  0  0
 36 37  1  0  0  0  0
 37 38  1  0  0  0  0
 37102  1  0  0  0  0
 37103  1  0  0  0  0
 38 39  1  0  0  0  0
 38104  1  0  0  0  0
 38105  1  0  0  0  0
 39 40  1  0  0  0  0
 39106  1  0  0  0  0
 39107  1  0  0  0  0
 40 41  1  0  0  0  0
 40108  1  0  0  0  0
 40109  1  0  0  0  0
 41 42  1  0  0  0  0
 41110  1  0  0  0  0
 41111  1  0  0  0  0
 42 43  1  0  0  0  0
 42112  1  0  0  0  0
 42113  1  0  0  0  0
 43 44  1  0  0  0  0
 43114  1  0  0  0  0
 43115  1  0  0  0  0
 44 45  2  0  0  0  0
 44116  1  0  0  0  0
 45 46  1  0  0  0  0
 45117  1  0  0  0  0
 46 47  1  0  0  0  0
 46118  1  0  0  0  0
 46119  1  0  0  0  0
 47 48  1  0  0  0  0
 47120  1  0  0  0  0
 47121  1  0  0  0  0
 48 49  1  0  0  0  0
 48122  1  0  0  0  0
 48123  1  0  0  0  0
 49 50  1  0  0  0  0
 49124  1  0  0  0  0
 49125  1  0  0  0  0
 50 51  1  0  0  0  0
 50126  1  0  0  0  0
 50127  1  0  0  0  0
 51 52  1  0  0  0  0
 51128  1  0  0  0  0
 51129  1  0  0  0  0
 52 53  1  0  0  0  0
 52130  1  0  0  0  0
 52131  1  0  0  0  0
 53132  1  0  0  0  0
 53133  1  0  0  0  0
 53134  1  0  0  0  0
M  CHG  1   9  -1
M  END
$$$$