/media/chris/experiments/cd1a-new-docking/inputs/ligands/7sh4_ligand.pdb
 OpenBabel07012320073D

134133  0  0  1  0  0  0  0  0999 V2000
  -42.7812   47.6911   55.5265 C   0  0  0  0  0  0  0  0  0  0  0  0
  -34.6407   59.2376   64.6391 O   0  0  0  0  0  0  0  0  0  0  0  0
  -35.6684   62.1020   62.4058 P   0  0  1  0  0  0  0  0  0  0  0  0
  -41.4101   47.9581   56.1050 C   0  0  0  0  0  0  0  0  0  0  0  0
  -36.5027   58.0190   64.4222 O   0  0  0  0  0  0  0  0  0  0  0  0
  -41.4099   49.1204   57.0798 C   0  0  0  0  0  0  0  0  0  0  0  0
  -35.2304   61.1139   63.5864 O   0  0  0  0  0  0  0  0  0  0  0  0
  -40.0540   49.4455   57.6805 C   0  0  0  0  0  0  0  0  0  0  0  0
  -34.4498   62.7510   61.8761 O   0  5  0  0  0  0  0  0  0  0  0  0
  -40.0868   50.6043   58.6672 C   0  0  0  0  0  0  0  0  0  0  0  0
  -36.5373   61.3473   61.4709 O   0  0  0  0  0  0  0  0  0  0  0  0
  -38.7313   50.9405   59.2544 C   0  0  0  0  0  0  0  0  0  0  0  0
  -36.5593   63.2254   63.1038 O   0  0  0  0  0  0  0  0  0  0  0  0
  -38.7724   52.0844   60.2494 C   0  0  0  0  0  0  0  0  0  0  0  0
  -38.7311   65.5517   66.7029 O   0  0  0  0  0  0  0  0  0  0  0  0
  -39.6561   51.8183   61.4628 C   0  0  0  0  0  0  0  0  0  0  0  0
  -38.9226   64.2386   64.1994 O   0  0  0  0  0  0  0  0  0  0  0  0
  -39.7083   52.9690   62.4459 C   0  0  0  0  0  0  0  0  0  0  0  0
  -38.2720   59.8520   65.2990 O   0  0  0  0  0  0  0  0  0  0  0  0
  -38.3589   53.3572   63.0157 C   0  0  0  0  0  0  0  0  0  0  0  0
  -37.5387   57.8263   65.9462 O   0  0  0  0  0  0  0  0  0  0  0  0
  -37.3819   53.8046   61.9512 C   0  0  0  0  0  0  0  0  0  0  0  0
  -36.0300   54.1780   62.4995 C   0  0  0  0  0  0  0  0  0  0  0  0
  -35.0677   54.6390   61.4324 C   0  0  0  0  0  0  0  0  0  0  0  0
  -33.7006   54.9996   61.9776 C   0  0  0  0  0  0  0  0  0  0  0  0
  -33.7469   56.1054   63.0076 C   0  0  0  0  0  0  0  0  0  0  0  0
  -34.5695   55.7754   64.2352 C   0  0  0  0  0  0  0  0  0  0  0  0
  -34.6084   56.9138   65.2406 C   0  0  0  0  0  0  0  0  0  0  0  0
  -35.2107   58.1821   64.7081 C   0  0  0  0  0  0  0  0  0  0  0  0
  -37.0720   58.9080   63.4380 C   0  0  0  0  0  0  0  0  0  0  0  0
  -37.3490   60.1700   64.2050 C   0  0  2  0  0  0  0  0  0  0  0  0
  -36.0840   60.8130   64.7130 C   0  0  0  0  0  0  0  0  0  0  0  0
  -36.7996   63.1759   64.5250 C   0  0  0  0  0  0  0  0  0  0  0  0
  -37.6793   64.3432   64.8997 C   0  0  2  0  0  0  0  0  0  0  0  0
  -37.9244   64.4242   66.3873 C   0  0  0  0  0  0  0  0  0  0  0  0
  -37.8515   58.9548   66.2113 C   0  0  0  0  0  0  0  0  0  0  0  0
  -37.8033   59.5376   67.5897 C   0  0  0  0  0  0  0  0  0  0  0  0
  -36.7106   58.8884   68.4331 C   0  0  0  0  0  0  0  0  0  0  0  0
  -35.3104   59.0632   67.8684 C   0  0  0  0  0  0  0  0  0  0  0  0
  -34.8790   60.5204   67.7482 C   0  0  0  0  0  0  0  0  0  0  0  0
  -34.8459   61.2650   69.0699 C   0  0  0  0  0  0  0  0  0  0  0  0
  -34.4305   62.7349   68.9623 C   0  0  0  0  0  0  0  0  0  0  0  0
  -33.0434   62.9779   68.3635 C   0  0  0  0  0  0  0  0  0  0  0  0
  -31.9605   62.3121   69.1585 C   0  0  0  0  0  0  0  0  0  0  0  0
  -30.8182   61.8434   68.6948 C   0  0  0  0  0  0  0  0  0  0  0  0
  -30.3621   61.8802   67.2704 C   0  0  0  0  0  0  0  0  0  0  0  0
  -28.9935   61.2329   67.0803 C   0  0  0  0  0  0  0  0  0  0  0  0
  -28.9533   59.7661   67.4716 C   0  0  0  0  0  0  0  0  0  0  0  0
  -29.3247   59.5116   68.9224 C   0  0  0  0  0  0  0  0  0  0  0  0
  -28.4330   60.2136   69.9331 C   0  0  0  0  0  0  0  0  0  0  0  0
  -28.8147   59.9294   71.3778 C   0  0  0  0  0  0  0  0  0  0  0  0
  -30.2287   60.3388   71.7397 C   0  0  0  0  0  0  0  0  0  0  0  0
  -30.5651   60.0589   73.1778 C   0  0  0  0  0  0  0  0  0  0  0  0
  -42.7274   46.8655   54.8480 H   0  0  0  0  0  0  0  0  0  0  0  0
  -43.1235   48.5601   55.0044 H   0  0  0  0  0  0  0  0  0  0  0  0
  -43.4631   47.4587   56.3177 H   0  0  0  0  0  0  0  0  0  0  0  0
  -40.7368   48.1814   55.3039 H   0  0  0  0  0  0  0  0  0  0  0  0
  -41.1060   47.0831   56.6406 H   0  0  0  0  0  0  0  0  0  0  0  0
  -42.0807   48.8846   57.8794 H   0  0  0  0  0  0  0  0  0  0  0  0
  -41.7071   49.9830   56.5209 H   0  0  0  0  0  0  0  0  0  0  0  0
  -39.3833   49.6970   56.8856 H   0  0  0  0  0  0  0  0  0  0  0  0
  -39.7355   48.5801   58.2232 H   0  0  0  0  0  0  0  0  0  0  0  0
  -40.7481   50.3477   59.4683 H   0  0  0  0  0  0  0  0  0  0  0  0
  -40.4170   51.4668   58.1269 H   0  0  0  0  0  0  0  0  0  0  0  0
  -36.0169   60.6560   61.0325 H   0  0  0  0  0  0  0  0  0  0  0  0
  -38.0728   51.2098   58.4551 H   0  0  0  0  0  0  0  0  0  0  0  0
  -38.3926   50.0741   59.7832 H   0  0  0  0  0  0  0  0  0  0  0  0
  -39.1427   52.9539   59.7475 H   0  0  0  0  0  0  0  0  0  0  0  0
  -37.7750   52.2134   60.6147 H   0  0  0  0  0  0  0  0  0  0  0  0
  -38.8772   65.5866   67.6612 H   0  0  0  0  0  0  0  0  0  0  0  0
  -39.2787   50.9564   61.9723 H   0  0  0  0  0  0  0  0  0  0  0  0
  -40.6516   51.6754   61.0976 H   0  0  0  0  0  0  0  0  0  0  0  0
  -38.7532   64.1873   63.2457 H   0  0  0  0  0  0  0  0  0  0  0  0
  -40.3478   52.6894   63.2569 H   0  0  0  0  0  0  0  0  0  0  0  0
  -40.0719   53.8190   61.9072 H   0  0  0  0  0  0  0  0  0  0  0  0
  -37.9464   52.5114   63.5251 H   0  0  0  0  0  0  0  0  0  0  0  0
  -38.5138   54.1822   63.6792 H   0  0  0  0  0  0  0  0  0  0  0  0
  -37.7922   54.6568   61.4508 H   0  0  0  0  0  0  0  0  0  0  0  0
  -37.2365   52.9776   61.2880 H   0  0  0  0  0  0  0  0  0  0  0  0
  -35.6125   53.3228   62.9888 H   0  0  0  0  0  0  0  0  0  0  0  0
  -36.1734   54.9947   63.1757 H   0  0  0  0  0  0  0  0  0  0  0  0
  -35.4804   55.5012   60.9516 H   0  0  0  0  0  0  0  0  0  0  0  0
  -34.9339   53.8248   60.7512 H   0  0  0  0  0  0  0  0  0  0  0  0
  -33.0823   55.3173   61.1641 H   0  0  0  0  0  0  0  0  0  0  0  0
  -33.3095   54.1288   62.4610 H   0  0  0  0  0  0  0  0  0  0  0  0
  -34.1654   56.9758   62.5471 H   0  0  0  0  0  0  0  0  0  0  0  0
  -32.7418   56.2564   63.3422 H   0  0  0  0  0  0  0  0  0  0  0  0
  -34.1462   54.9147   64.7094 H   0  0  0  0  0  0  0  0  0  0  0  0
  -35.5737   55.5965   63.9118 H   0  0  0  0  0  0  0  0  0  0  0  0
  -33.6059   57.1224   65.5510 H   0  0  0  0  0  0  0  0  0  0  0  0
  -35.2324   56.5913   66.0478 H   0  0  0  0  0  0  0  0  0  0  0  0
  -37.9762   58.5012   63.0358 H   0  0  0  0  0  0  0  0  0  0  0  0
  -36.4225   59.0678   62.6029 H   0  0  0  0  0  0  0  0  0  0  0  0
  -37.7985   60.8886   63.5519 H   0  0  0  0  0  0  0  0  0  0  0  0
  -36.3238   61.7163   65.2340 H   0  0  0  0  0  0  0  0  0  0  0  0
  -35.5811   60.1472   65.3829 H   0  0  0  0  0  0  0  0  0  0  0  0
  -35.8701   63.2402   65.0512 H   0  0  0  0  0  0  0  0  0  0  0  0
  -37.2792   62.2554   64.7852 H   0  0  0  0  0  0  0  0  0  0  0  0
  -37.1712   65.2421   64.6191 H   0  0  0  0  0  0  0  0  0  0  0  0
  -38.4229   63.5342   66.7102 H   0  0  0  0  0  0  0  0  0  0  0  0
  -36.9831   64.5241   66.8862 H   0  0  0  0  0  0  0  0  0  0  0  0
  -38.7487   59.3824   68.0662 H   0  0  0  0  0  0  0  0  0  0  0  0
  -37.5863   60.5820   67.5053 H   0  0  0  0  0  0  0  0  0  0  0  0
  -36.9171   57.8408   68.5033 H   0  0  0  0  0  0  0  0  0  0  0  0
  -36.7239   59.3747   69.3861 H   0  0  0  0  0  0  0  0  0  0  0  0
  -35.2804   58.6201   66.8949 H   0  0  0  0  0  0  0  0  0  0  0  0
  -34.6353   58.5911   68.5512 H   0  0  0  0  0  0  0  0  0  0  0  0
  -35.5641   61.0215   67.0968 H   0  0  0  0  0  0  0  0  0  0  0  0
  -33.8782   60.5168   67.3697 H   0  0  0  0  0  0  0  0  0  0  0  0
  -34.1521   60.7683   69.7156 H   0  0  0  0  0  0  0  0  0  0  0  0
  -35.8473   61.2593   69.4467 H   0  0  0  0  0  0  0  0  0  0  0  0
  -34.4447   63.1558   69.9460 H   0  0  0  0  0  0  0  0  0  0  0  0
  -35.1277   63.1922   68.2917 H   0  0  0  0  0  0  0  0  0  0  0  0
  -32.8570   64.0313   68.3414 H   0  0  0  0  0  0  0  0  0  0  0  0
  -33.0325   62.5605   67.3784 H   0  0  0  0  0  0  0  0  0  0  0  0
  -32.1257   62.2103   70.1721 H   0  0  0  0  0  0  0  0  0  0  0  0
  -30.1787   61.4102   69.3792 H   0  0  0  0  0  0  0  0  0  0  0  0
  -30.3064   62.9008   66.9539 H   0  0  0  0  0  0  0  0  0  0  0  0
  -31.0683   61.3266   66.6876 H   0  0  0  0  0  0  0  0  0  0  0  0
  -28.2829   61.7623   67.6801 H   0  0  0  0  0  0  0  0  0  0  0  0
  -28.7648   61.2848   66.0363 H   0  0  0  0  0  0  0  0  0  0  0  0
  -27.9615   59.3996   67.3074 H   0  0  0  0  0  0  0  0  0  0  0  0
  -29.6796   59.2615   66.8694 H   0  0  0  0  0  0  0  0  0  0  0  0
  -29.2686   58.4583   69.1019 H   0  0  0  0  0  0  0  0  0  0  0  0
  -30.3095   59.9072   69.0585 H   0  0  0  0  0  0  0  0  0  0  0  0
  -28.4976   61.2687   69.7668 H   0  0  0  0  0  0  0  0  0  0  0  0
  -27.4403   59.8409   69.7902 H   0  0  0  0  0  0  0  0  0  0  0  0
  -28.1384   60.4609   72.0142 H   0  0  0  0  0  0  0  0  0  0  0  0
  -28.7594   58.8687   71.5072 H   0  0  0  0  0  0  0  0  0  0  0  0
  -30.9111   59.7985   71.1173 H   0  0  0  0  0  0  0  0  0  0  0  0
  -30.3070   61.3954   71.5898 H   0  0  0  0  0  0  0  0  0  0  0  0
  -30.4961   59.0071   73.3620 H   0  0  0  0  0  0  0  0  0  0  0  0
  -31.5610   60.3922   73.3825 H   0  0  0  0  0  0  0  0  0  0  0  0
  -29.8776   60.5780   73.8124 H   0  0  0  0  0  0  0  0  0  0  0  0
  1  4  1  0  0  0  0
  1 54  1  0  0  0  0
  1 55  1  0  0  0  0
  1 56  1  0  0  0  0
  2 29  2  0  0  0  0
  3  7  1  0  0  0  0
  3  9  2  6  0  0  0
  3 11  1  0  0  0  0
  3 13  1  0  0  0  0
  4  6  1  0  0  0  0
  4 57  1  0  0  0  0
  4 58  1  0  0  0  0
  5 29  1  0  0  0  0
  5 30  1  0  0  0  0
  6  8  1  0  0  0  0
  6 59  1  0  0  0  0
  6 60  1  0  0  0  0
  7 32  1  0  0  0  0
  8 10  1  0  0  0  0
  8 61  1  0  0  0  0
  8 62  1  0  0  0  0
 10 12  1  0  0  0  0
 10 63  1  0  0  0  0
 10 64  1  0  0  0  0
 11 65  1  0  0  0  0
 12 14  1  0  0  0  0
 12 66  1  0  0  0  0
 12 67  1  0  0  0  0
 13 33  1  0  0  0  0
 14 16  1  0  0  0  0
 14 68  1  0  0  0  0
 14 69  1  0  0  0  0
 15 35  1  0  0  0  0
 15 70  1  0  0  0  0
 16 18  1  0  0  0  0
 16 71  1  0  0  0  0
 16 72  1  0  0  0  0
 17 34  1  0  0  0  0
 17 73  1  0  0  0  0
 18 20  1  0  0  0  0
 18 74  1  0  0  0  0
 18 75  1  0  0  0  0
 19 31  1  0  0  0  0
 19 36  1  0  0  0  0
 20 22  1  0  0  0  0
 20 76  1  0  0  0  0
 20 77  1  0  0  0  0
 21 36  2  0  0  0  0
 22 23  1  0  0  0  0
 22 78  1  0  0  0  0
 22 79  1  0  0  0  0
 23 24  1  0  0  0  0
 23 80  1  0  0  0  0
 23 81  1  0  0  0  0
 24 25  1  0  0  0  0
 24 82  1  0  0  0  0
 24 83  1  0  0  0  0
 25 26  1  0  0  0  0
 25 84  1  0  0  0  0
 25 85  1  0  0  0  0
 26 27  1  0  0  0  0
 26 86  1  0  0  0  0
 26 87  1  0  0  0  0
 27 28  1  0  0  0  0
 27 88  1  0  0  0  0
 27 89  1  0  0  0  0
 28 29  1  0  0  0  0
 28 90  1  0  0  0  0
 28 91  1  0  0  0  0
 30 31  1  0  0  0  0
 30 92  1  0  0  0  0
 30 93  1  0  0  0  0
 31 32  1  0  0  0  0
 31 94  1  6  0  0  0
 32 95  1  0  0  0  0
 32 96  1  0  0  0  0
 33 34  1  0  0  0  0
 33 97  1  0  0  0  0
 33 98  1  0  0  0  0
 34 35  1  0  0  0  0
 34 99  1  6  0  0  0
 35100  1  0  0  0  0
 35101  1  0  0  0  0
 36 37  1  0  0  0  0
 37 38  1  0  0  0  0
 37102  1  0  0  0  0
 37103  1  0  0  0  0
 38 39  1  0  0  0  0
 38104  1  0  0  0  0
 38105  1  0  0  0  0
 39 40  1  0  0  0  0
 39106  1  0  0  0  0
 39107  1  0  0  0  0
 40 41  1  0  0  0  0
 40108  1  0  0  0  0
 40109  1  0  0  0  0
 41 42  1  0  0  0  0
 41110  1  0  0  0  0
 41111  1  0  0  0  0
 42 43  1  0  0  0  0
 42112  1  0  0  0  0
 42113  1  0  0  0  0
 43 44  1  0  0  0  0
 43114  1  0  0  0  0
 43115  1  0  0  0  0
 44 45  2  0  0  0  0
 44116  1  0  0  0  0
 45 46  1  0  0  0  0
 45117  1  0  0  0  0
 46 47  1  0  0  0  0
 46118  1  0  0  0  0
 46119  1  0  0  0  0
 47 48  1  0  0  0  0
 47120  1  0  0  0  0
 47121  1  0  0  0  0
 48 49  1  0  0  0  0
 48122  1  0  0  0  0
 48123  1  0  0  0  0
 49 50  1  0  0  0  0
 49124  1  0  0  0  0
 49125  1  0  0  0  0
 50 51  1  0  0  0  0
 50126  1  0  0  0  0
 50127  1  0  0  0  0
 51 52  1  0  0  0  0
 51128  1  0  0  0  0
 51129  1  0  0  0  0
 52 53  1  0  0  0  0
 52130  1  0  0  0  0
 52131  1  0  0  0  0
 53132  1  0  0  0  0
 53133  1  0  0  0  0
 53134  1  0  0  0  0
M  CHG  1   9  -1
M  END
$$$$