/media/chris/experiments/cd1a-new-docking/inputs/ligands/7sh4_ligand.pdb
 OpenBabel07012320073D

134133  0  0  1  0  0  0  0  0999 V2000
  -32.6161   51.4459   47.9118 C   0  0  0  0  0  0  0  0  0  0  0  0
  -34.4062   58.3144   63.3762 O   0  0  0  0  0  0  0  0  0  0  0  0
  -35.3336   62.9877   66.0786 P   0  0  1  0  0  0  0  0  0  0  0  0
  -31.4905   50.5034   48.2728 C   0  0  0  0  0  0  0  0  0  0  0  0
  -36.1511   59.3213   62.4064 O   0  0  0  0  0  0  0  0  0  0  0  0
  -30.6656   51.0083   49.4414 C   0  0  0  0  0  0  0  0  0  0  0  0
  -36.4293   62.0282   65.4148 O   0  0  0  0  0  0  0  0  0  0  0  0
  -31.4403   51.1901   50.7344 C   0  0  0  0  0  0  0  0  0  0  0  0
  -34.0856   62.8690   65.2943 O   0  5  0  0  0  0  0  0  0  0  0  0
  -30.5916   51.7135   51.8847 C   0  0  0  0  0  0  0  0  0  0  0  0
  -35.9402   64.3294   66.2534 O   0  0  0  0  0  0  0  0  0  0  0  0
  -31.3600   51.8792   53.1799 C   0  0  0  0  0  0  0  0  0  0  0  0
  -35.0625   62.3801   67.5278 O   0  0  0  0  0  0  0  0  0  0  0  0
  -30.5139   52.4169   54.3180 C   0  0  0  0  0  0  0  0  0  0  0  0
  -31.1006   63.6955   68.0241 O   0  0  0  0  0  0  0  0  0  0  0  0
  -31.2705   52.5727   55.6322 C   0  0  0  0  0  0  0  0  0  0  0  0
  -34.4747   64.5856   69.1410 O   0  0  0  0  0  0  0  0  0  0  0  0
  -32.4606   53.5052   55.5464 C   0  0  0  0  0  0  0  0  0  0  0  0
  -38.2720   59.8520   65.2990 O   0  0  0  0  0  0  0  0  0  0  0  0
  -33.2069   53.6773   56.8539 C   0  0  0  0  0  0  0  0  0  0  0  0
  -40.1012   60.3734   64.0980 O   0  0  0  0  0  0  0  0  0  0  0  0
  -34.3986   54.6006   56.7294 C   0  0  0  0  0  0  0  0  0  0  0  0
  -34.0349   55.9870   56.2675 C   0  0  0  0  0  0  0  0  0  0  0  0
  -33.0645   56.6808   57.1920 C   0  0  0  0  0  0  0  0  0  0  0  0
  -33.5908   56.8316   58.6049 C   0  0  0  0  0  0  0  0  0  0  0  0
  -34.8774   57.6223   58.6762 C   0  0  0  0  0  0  0  0  0  0  0  0
  -35.4174   57.8029   60.0792 C   0  0  0  0  0  0  0  0  0  0  0  0
  -34.4561   58.5504   60.9878 C   0  0  0  0  0  0  0  0  0  0  0  0
  -34.9553   58.7317   62.3924 C   0  0  0  0  0  0  0  0  0  0  0  0
  -37.0720   58.9080   63.4380 C   0  0  0  0  0  0  0  0  0  0  0  0
  -37.3490   60.1700   64.2050 C   0  0  2  0  0  0  0  0  0  0  0  0
  -36.0840   60.8130   64.7130 C   0  0  0  0  0  0  0  0  0  0  0  0
  -33.7652   62.5269   68.1406 C   0  0  0  0  0  0  0  0  0  0  0  0
  -33.4777   63.9998   68.2986 C   0  0  2  0  0  0  0  0  0  0  0  0
  -32.1012   64.2595   68.8621 C   0  0  0  0  0  0  0  0  0  0  0  0
  -39.5790   59.7587   64.9875 C   0  0  0  0  0  0  0  0  0  0  0  0
  -40.2973   58.7848   65.8694 C   0  0  0  0  0  0  0  0  0  0  0  0
  -41.4620   58.1235   65.1394 C   0  0  0  0  0  0  0  0  0  0  0  0
  -41.0487   57.3308   63.9103 C   0  0  0  0  0  0  0  0  0  0  0  0
  -42.2202   56.6875   63.1772 C   0  0  0  0  0  0  0  0  0  0  0  0
  -43.2426   57.6806   62.6566 C   0  0  0  0  0  0  0  0  0  0  0  0
  -42.6917   58.6907   61.6461 C   0  0  0  0  0  0  0  0  0  0  0  0
  -43.7068   59.7099   61.1242 C   0  0  0  0  0  0  0  0  0  0  0  0
  -43.1000   60.6527   60.1288 C   0  0  0  0  0  0  0  0  0  0  0  0
  -42.0818   61.4655   60.3334 C   0  0  0  0  0  0  0  0  0  0  0  0
  -41.3147   61.6156   61.6091 C   0  0  0  0  0  0  0  0  0  0  0  0
  -40.7585   63.0247   61.7918 C   0  0  0  0  0  0  0  0  0  0  0  0
  -39.9597   63.2036   63.0710 C   0  0  0  0  0  0  0  0  0  0  0  0
  -38.7413   62.3010   63.1604 C   0  0  0  0  0  0  0  0  0  0  0  0
  -37.7185   62.5126   62.0564 C   0  0  0  0  0  0  0  0  0  0  0  0
  -37.1373   63.9181   62.0306 C   0  0  0  0  0  0  0  0  0  0  0  0
  -36.4047   64.3116   63.2980 C   0  0  0  0  0  0  0  0  0  0  0  0
  -35.8589   65.7112   63.2434 C   0  0  0  0  0  0  0  0  0  0  0  0
  -33.1653   51.0457   47.0853 H   0  0  0  0  0  0  0  0  0  0  0  0
  -32.2109   52.3990   47.6427 H   0  0  0  0  0  0  0  0  0  0  0  0
  -33.2689   51.5602   48.7519 H   0  0  0  0  0  0  0  0  0  0  0  0
  -30.8500   50.3917   47.4229 H   0  0  0  0  0  0  0  0  0  0  0  0
  -31.9265   49.5696   48.5606 H   0  0  0  0  0  0  0  0  0  0  0  0
  -30.2457   51.9540   49.1688 H   0  0  0  0  0  0  0  0  0  0  0  0
  -29.9266   50.2591   49.6351 H   0  0  0  0  0  0  0  0  0  0  0  0
  -31.8497   50.2435   51.0195 H   0  0  0  0  0  0  0  0  0  0  0  0
  -32.1985   51.9212   50.5458 H   0  0  0  0  0  0  0  0  0  0  0  0
  -30.1923   52.6658   51.6043 H   0  0  0  0  0  0  0  0  0  0  0  0
  -29.8262   50.9879   52.0650 H   0  0  0  0  0  0  0  0  0  0  0  0
  -36.1151   64.7210   65.3834 H   0  0  0  0  0  0  0  0  0  0  0  0
  -31.7489   50.9249   53.4679 H   0  0  0  0  0  0  0  0  0  0  0  0
  -32.1353   52.5939   52.9978 H   0  0  0  0  0  0  0  0  0  0  0  0
  -30.1352   53.3759   54.0319 H   0  0  0  0  0  0  0  0  0  0  0  0
  -29.7366   51.7022   54.4907 H   0  0  0  0  0  0  0  0  0  0  0  0
  -30.2250   63.8724   68.4019 H   0  0  0  0  0  0  0  0  0  0  0  0
  -30.5941   52.9560   56.3674 H   0  0  0  0  0  0  0  0  0  0  0  0
  -31.6504   51.6060   55.8892 H   0  0  0  0  0  0  0  0  0  0  0  0
  -35.3540   64.4127   68.7698 H   0  0  0  0  0  0  0  0  0  0  0  0
  -33.1418   53.1147   54.8195 H   0  0  0  0  0  0  0  0  0  0  0  0
  -32.0792   54.4686   55.2795 H   0  0  0  0  0  0  0  0  0  0  0  0
  -32.5345   54.0826   57.5809 H   0  0  0  0  0  0  0  0  0  0  0  0
  -33.5729   52.7152   57.1460 H   0  0  0  0  0  0  0  0  0  0  0  0
  -34.8716   54.6750   57.6863 H   0  0  0  0  0  0  0  0  0  0  0  0
  -35.0474   54.1810   55.9892 H   0  0  0  0  0  0  0  0  0  0  0  0
  -34.9286   56.5725   56.2095 H   0  0  0  0  0  0  0  0  0  0  0  0
  -33.5570   55.8919   55.3149 H   0  0  0  0  0  0  0  0  0  0  0  0
  -32.8586   57.6549   56.8000 H   0  0  0  0  0  0  0  0  0  0  0  0
  -32.1846   56.0742   57.2432 H   0  0  0  0  0  0  0  0  0  0  0  0
  -32.8501   57.3323   59.1928 H   0  0  0  0  0  0  0  0  0  0  0  0
  -33.7985   55.8493   58.9750 H   0  0  0  0  0  0  0  0  0  0  0  0
  -35.6172   57.1127   58.0949 H   0  0  0  0  0  0  0  0  0  0  0  0
  -34.6584   58.6007   58.3025 H   0  0  0  0  0  0  0  0  0  0  0  0
  -35.6052   56.8374   60.5003 H   0  0  0  0  0  0  0  0  0  0  0  0
  -36.3122   58.3853   60.0078 H   0  0  0  0  0  0  0  0  0  0  0  0
  -34.2793   59.5179   60.5666 H   0  0  0  0  0  0  0  0  0  0  0  0
  -33.5672   57.9580   61.0505 H   0  0  0  0  0  0  0  0  0  0  0  0
  -36.6274   58.1683   64.0706 H   0  0  0  0  0  0  0  0  0  0  0  0
  -37.9610   58.4631   63.0423 H   0  0  0  0  0  0  0  0  0  0  0  0
  -37.7985   60.8886   63.5519 H   0  0  0  0  0  0  0  0  0  0  0  0
  -35.5824   60.1428   65.3795 H   0  0  0  0  0  0  0  0  0  0  0  0
  -35.4356   61.0386   63.8923 H   0  0  0  0  0  0  0  0  0  0  0  0
  -33.0190   62.0776   67.5192 H   0  0  0  0  0  0  0  0  0  0  0  0
  -33.7530   62.0451   69.0959 H   0  0  0  0  0  0  0  0  0  0  0  0
  -33.5051   64.4470   67.3269 H   0  0  0  0  0  0  0  0  0  0  0  0
  -31.9447   65.3156   68.9342 H   0  0  0  0  0  0  0  0  0  0  0  0
  -32.0346   63.8076   69.8297 H   0  0  0  0  0  0  0  0  0  0  0  0
  -40.6735   59.3037   66.7262 H   0  0  0  0  0  0  0  0  0  0  0  0
  -39.6059   58.0215   66.1596 H   0  0  0  0  0  0  0  0  0  0  0  0
  -42.1452   58.8879   64.8332 H   0  0  0  0  0  0  0  0  0  0  0  0
  -41.9024   57.4284   65.8234 H   0  0  0  0  0  0  0  0  0  0  0  0
  -40.3756   56.5576   64.2168 H   0  0  0  0  0  0  0  0  0  0  0  0
  -40.5934   58.0203   63.2304 H   0  0  0  0  0  0  0  0  0  0  0  0
  -42.7134   56.0194   63.8520 H   0  0  0  0  0  0  0  0  0  0  0  0
  -41.8138   56.1855   62.3242 H   0  0  0  0  0  0  0  0  0  0  0  0
  -43.6357   58.2233   63.4908 H   0  0  0  0  0  0  0  0  0  0  0  0
  -43.9854   57.1090   62.1405 H   0  0  0  0  0  0  0  0  0  0  0  0
  -42.3092   58.1458   60.8084 H   0  0  0  0  0  0  0  0  0  0  0  0
  -41.9456   59.2543   62.1662 H   0  0  0  0  0  0  0  0  0  0  0  0
  -44.0830   60.2761   61.9506 H   0  0  0  0  0  0  0  0  0  0  0  0
  -44.4904   59.1720   60.6328 H   0  0  0  0  0  0  0  0  0  0  0  0
  -43.5222   60.6670   59.1872 H   0  0  0  0  0  0  0  0  0  0  0  0
  -41.7862   62.0536   59.5385 H   0  0  0  0  0  0  0  0  0  0  0  0
  -40.4994   60.9226   61.6033 H   0  0  0  0  0  0  0  0  0  0  0  0
  -41.9874   61.4232   62.4186 H   0  0  0  0  0  0  0  0  0  0  0  0
  -41.5781   63.7124   61.8062 H   0  0  0  0  0  0  0  0  0  0  0  0
  -40.0890   63.2052   60.9768 H   0  0  0  0  0  0  0  0  0  0  0  0
  -40.5997   62.9907   63.9016 H   0  0  0  0  0  0  0  0  0  0  0  0
  -39.6032   64.2124   63.0789 H   0  0  0  0  0  0  0  0  0  0  0  0
  -39.0740   61.2850   63.1175 H   0  0  0  0  0  0  0  0  0  0  0  0
  -38.2507   62.5419   64.0803 H   0  0  0  0  0  0  0  0  0  0  0  0
  -38.1917   62.3243   61.1154 H   0  0  0  0  0  0  0  0  0  0  0  0
  -36.9081   61.8398   62.2444 H   0  0  0  0  0  0  0  0  0  0  0  0
  -37.9392   64.6099   61.8781 H   0  0  0  0  0  0  0  0  0  0  0  0
  -36.4163   63.9378   61.2403 H   0  0  0  0  0  0  0  0  0  0  0  0
  -35.5912   63.6329   63.4476 H   0  0  0  0  0  0  0  0  0  0  0  0
  -37.1082   64.2709   64.1032 H   0  0  0  0  0  0  0  0  0  0  0  0
  -35.1496   65.7865   62.4458 H   0  0  0  0  0  0  0  0  0  0  0  0
  -35.3787   65.9432   64.1709 H   0  0  0  0  0  0  0  0  0  0  0  0
  -36.6601   66.4001   63.0744 H   0  0  0  0  0  0  0  0  0  0  0  0
  1  4  1  0  0  0  0
  1 54  1  0  0  0  0
  1 55  1  0  0  0  0
  1 56  1  0  0  0  0
  2 29  2  0  0  0  0
  3  7  1  0  0  0  0
  3  9  2  6  0  0  0
  3 11  1  0  0  0  0
  3 13  1  0  0  0  0
  4  6  1  0  0  0  0
  4 57  1  0  0  0  0
  4 58  1  0  0  0  0
  5 29  1  0  0  0  0
  5 30  1  0  0  0  0
  6  8  1  0  0  0  0
  6 59  1  0  0  0  0
  6 60  1  0  0  0  0
  7 32  1  0  0  0  0
  8 10  1  0  0  0  0
  8 61  1  0  0  0  0
  8 62  1  0  0  0  0
 10 12  1  0  0  0  0
 10 63  1  0  0  0  0
 10 64  1  0  0  0  0
 11 65  1  0  0  0  0
 12 14  1  0  0  0  0
 12 66  1  0  0  0  0
 12 67  1  0  0  0  0
 13 33  1  0  0  0  0
 14 16  1  0  0  0  0
 14 68  1  0  0  0  0
 14 69  1  0  0  0  0
 15 35  1  0  0  0  0
 15 70  1  0  0  0  0
 16 18  1  0  0  0  0
 16 71  1  0  0  0  0
 16 72  1  0  0  0  0
 17 34  1  0  0  0  0
 17 73  1  0  0  0  0
 18 20  1  0  0  0  0
 18 74  1  0  0  0  0
 18 75  1  0  0  0  0
 19 31  1  0  0  0  0
 19 36  1  0  0  0  0
 20 22  1  0  0  0  0
 20 76  1  0  0  0  0
 20 77  1  0  0  0  0
 21 36  2  0  0  0  0
 22 23  1  0  0  0  0
 22 78  1  0  0  0  0
 22 79  1  0  0  0  0
 23 24  1  0  0  0  0
 23 80  1  0  0  0  0
 23 81  1  0  0  0  0
 24 25  1  0  0  0  0
 24 82  1  0  0  0  0
 24 83  1  0  0  0  0
 25 26  1  0  0  0  0
 25 84  1  0  0  0  0
 25 85  1  0  0  0  0
 26 27  1  0  0  0  0
 26 86  1  0  0  0  0
 26 87  1  0  0  0  0
 27 28  1  0  0  0  0
 27 88  1  0  0  0  0
 27 89  1  0  0  0  0
 28 29  1  0  0  0  0
 28 90  1  0  0  0  0
 28 91  1  0  0  0  0
 30 31  1  0  0  0  0
 30 92  1  0  0  0  0
 30 93  1  0  0  0  0
 31 32  1  0  0  0  0
 31 94  1  6  0  0  0
 32 95  1  0  0  0  0
 32 96  1  0  0  0  0
 33 34  1  0  0  0  0
 33 97  1  0  0  0  0
 33 98  1  0  0  0  0
 34 35  1  0  0  0  0
 34 99  1  6  0  0  0
 35100  1  0  0  0  0
 35101  1  0  0  0  0
 36 37  1  0  0  0  0
 37 38  1  0  0  0  0
 37102  1  0  0  0  0
 37103  1  0  0  0  0
 38 39  1  0  0  0  0
 38104  1  0  0  0  0
 38105  1  0  0  0  0
 39 40  1  0  0  0  0
 39106  1  0  0  0  0
 39107  1  0  0  0  0
 40 41  1  0  0  0  0
 40108  1  0  0  0  0
 40109  1  0  0  0  0
 41 42  1  0  0  0  0
 41110  1  0  0  0  0
 41111  1  0  0  0  0
 42 43  1  0  0  0  0
 42112  1  0  0  0  0
 42113  1  0  0  0  0
 43 44  1  0  0  0  0
 43114  1  0  0  0  0
 43115  1  0  0  0  0
 44 45  2  0  0  0  0
 44116  1  0  0  0  0
 45 46  1  0  0  0  0
 45117  1  0  0  0  0
 46 47  1  0  0  0  0
 46118  1  0  0  0  0
 46119  1  0  0  0  0
 47 48  1  0  0  0  0
 47120  1  0  0  0  0
 47121  1  0  0  0  0
 48 49  1  0  0  0  0
 48122  1  0  0  0  0
 48123  1  0  0  0  0
 49 50  1  0  0  0  0
 49124  1  0  0  0  0
 49125  1  0  0  0  0
 50 51  1  0  0  0  0
 50126  1  0  0  0  0
 50127  1  0  0  0  0
 51 52  1  0  0  0  0
 51128  1  0  0  0  0
 51129  1  0  0  0  0
 52 53  1  0  0  0  0
 52130  1  0  0  0  0
 52131  1  0  0  0  0
 53132  1  0  0  0  0
 53133  1  0  0  0  0
 53134  1  0  0  0  0
M  CHG  1   9  -1
M  END
$$$$