/media/chris/experiments/cd1a-new-docking/inputs/ligands/7sh4_ligand.pdb
 OpenBabel07012320073D

134133  0  0  1  0  0  0  0  0999 V2000
  -45.0486   47.1220   57.8861 C   0  0  0  0  0  0  0  0  0  0  0  0
  -34.4062   58.3144   63.3762 O   0  0  0  0  0  0  0  0  0  0  0  0
  -35.3336   62.9877   66.0786 P   0  0  1  0  0  0  0  0  0  0  0  0
  -44.6671   48.3537   57.0968 C   0  0  0  0  0  0  0  0  0  0  0  0
  -36.1511   59.3213   62.4064 O   0  0  0  0  0  0  0  0  0  0  0  0
  -43.8419   49.3309   57.9125 C   0  0  0  0  0  0  0  0  0  0  0  0
  -36.4293   62.0282   65.4148 O   0  0  0  0  0  0  0  0  0  0  0  0
  -42.5216   48.7788   58.4197 C   0  0  0  0  0  0  0  0  0  0  0  0
  -34.4368   63.4694   65.0061 O   0  5  0  0  0  0  0  0  0  0  0  0
  -41.7229   49.7749   59.2487 C   0  0  0  0  0  0  0  0  0  0  0  0
  -36.0410   63.9852   66.9173 O   0  0  0  0  0  0  0  0  0  0  0  0
  -41.3719   51.0445   58.5003 C   0  0  0  0  0  0  0  0  0  0  0  0
  -34.4817   62.0497   67.0468 O   0  0  0  0  0  0  0  0  0  0  0  0
  -40.5618   52.0260   59.3252 C   0  0  0  0  0  0  0  0  0  0  0  0
  -30.3770   62.0362   67.9548 O   0  0  0  0  0  0  0  0  0  0  0  0
  -40.2159   53.3158   58.5898 C   0  0  0  0  0  0  0  0  0  0  0  0
  -33.1734   59.6786   67.7386 O   0  0  0  0  0  0  0  0  0  0  0  0
  -39.3927   54.2863   59.4105 C   0  0  0  0  0  0  0  0  0  0  0  0
  -38.2720   59.8520   65.2990 O   0  0  0  0  0  0  0  0  0  0  0  0
  -39.0599   55.5776   58.6908 C   0  0  0  0  0  0  0  0  0  0  0  0
  -40.1012   60.3734   64.0980 O   0  0  0  0  0  0  0  0  0  0  0  0
  -38.2234   56.5163   59.5317 C   0  0  0  0  0  0  0  0  0  0  0  0
  -37.8981   57.8120   58.8367 C   0  0  0  0  0  0  0  0  0  0  0  0
  -37.1367   57.6153   57.5486 C   0  0  0  0  0  0  0  0  0  0  0  0
  -35.8166   56.8964   57.7399 C   0  0  0  0  0  0  0  0  0  0  0  0
  -34.8774   57.6223   58.6762 C   0  0  0  0  0  0  0  0  0  0  0  0
  -35.4174   57.8029   60.0792 C   0  0  0  0  0  0  0  0  0  0  0  0
  -34.4561   58.5504   60.9878 C   0  0  0  0  0  0  0  0  0  0  0  0
  -34.9553   58.7317   62.3924 C   0  0  0  0  0  0  0  0  0  0  0  0
  -37.0720   58.9080   63.4380 C   0  0  0  0  0  0  0  0  0  0  0  0
  -37.3490   60.1700   64.2050 C   0  0  2  0  0  0  0  0  0  0  0  0
  -36.0840   60.8130   64.7130 C   0  0  0  0  0  0  0  0  0  0  0  0
  -33.0629   61.8967   66.8384 C   0  0  0  0  0  0  0  0  0  0  0  0
  -32.5283   60.9475   67.8826 C   0  0  2  0  0  0  0  0  0  0  0  0
  -31.0299   60.7830   67.7967 C   0  0  0  0  0  0  0  0  0  0  0  0
  -39.5790   59.7587   64.9875 C   0  0  0  0  0  0  0  0  0  0  0  0
  -40.2973   58.7848   65.8694 C   0  0  0  0  0  0  0  0  0  0  0  0
  -40.9171   57.6499   65.0603 C   0  0  0  0  0  0  0  0  0  0  0  0
  -39.9059   56.8244   64.2817 C   0  0  0  0  0  0  0  0  0  0  0  0
  -40.5353   55.7033   63.4627 C   0  0  0  0  0  0  0  0  0  0  0  0
  -41.5167   56.1844   62.4101 C   0  0  0  0  0  0  0  0  0  0  0  0
  -42.7037   56.9790   62.9620 C   0  0  0  0  0  0  0  0  0  0  0  0
  -43.7115   57.4568   61.9144 C   0  0  0  0  0  0  0  0  0  0  0  0
  -44.8340   58.2400   62.5264 C   0  0  0  0  0  0  0  0  0  0  0  0
  -45.6802   57.8167   63.4451 C   0  0  0  0  0  0  0  0  0  0  0  0
  -45.6950   56.4587   64.0728 C   0  0  0  0  0  0  0  0  0  0  0  0
  -47.0985   56.0220   64.4827 C   0  0  0  0  0  0  0  0  0  0  0  0
  -47.1436   54.6532   65.1389 C   0  0  0  0  0  0  0  0  0  0  0  0
  -46.3301   54.5632   66.4185 C   0  0  0  0  0  0  0  0  0  0  0  0
  -46.7783   55.5121   67.5177 C   0  0  0  0  0  0  0  0  0  0  0  0
  -48.2110   55.2785   67.9723 C   0  0  0  0  0  0  0  0  0  0  0  0
  -48.4646   53.8981   68.5450 C   0  0  0  0  0  0  0  0  0  0  0  0
  -49.8932   53.6975   68.9678 C   0  0  0  0  0  0  0  0  0  0  0  0
  -45.6272   46.4675   57.2683 H   0  0  0  0  0  0  0  0  0  0  0  0
  -45.6261   47.4100   58.7396 H   0  0  0  0  0  0  0  0  0  0  0  0
  -44.1624   46.6168   58.2091 H   0  0  0  0  0  0  0  0  0  0  0  0
  -45.5609   48.8451   56.7735 H   0  0  0  0  0  0  0  0  0  0  0  0
  -44.0712   48.0374   56.2663 H   0  0  0  0  0  0  0  0  0  0  0  0
  -44.4235   49.6332   58.7582 H   0  0  0  0  0  0  0  0  0  0  0  0
  -43.5985   50.1409   57.2571 H   0  0  0  0  0  0  0  0  0  0  0  0
  -41.9299   48.4890   57.5766 H   0  0  0  0  0  0  0  0  0  0  0  0
  -42.7519   47.9520   59.0586 H   0  0  0  0  0  0  0  0  0  0  0  0
  -40.8141   49.3038   59.5601 H   0  0  0  0  0  0  0  0  0  0  0  0
  -42.3388   50.0590   60.0762 H   0  0  0  0  0  0  0  0  0  0  0  0
  -36.5678   64.5693   66.3497 H   0  0  0  0  0  0  0  0  0  0  0  0
  -42.2804   51.5231   58.1996 H   0  0  0  0  0  0  0  0  0  0  0  0
  -40.7678   50.7611   57.6638 H   0  0  0  0  0  0  0  0  0  0  0  0
  -39.6490   51.5488   59.6154 H   0  0  0  0  0  0  0  0  0  0  0  0
  -41.1675   52.3002   60.1635 H   0  0  0  0  0  0  0  0  0  0  0  0
  -29.4170   61.9103   67.8967 H   0  0  0  0  0  0  0  0  0  0  0  0
  -41.1284   53.7998   58.3105 H   0  0  0  0  0  0  0  0  0  0  0  0
  -39.6215   53.0417   57.7433 H   0  0  0  0  0  0  0  0  0  0  0  0
  -34.1345   59.7963   67.7953 H   0  0  0  0  0  0  0  0  0  0  0  0
  -38.4754   53.8053   59.6793 H   0  0  0  0  0  0  0  0  0  0  0  0
  -39.9851   54.5509   60.2614 H   0  0  0  0  0  0  0  0  0  0  0  0
  -39.9737   56.0711   58.4333 H   0  0  0  0  0  0  0  0  0  0  0  0
  -38.4879   55.3252   57.8225 H   0  0  0  0  0  0  0  0  0  0  0  0
  -37.3059   56.0242   59.7786 H   0  0  0  0  0  0  0  0  0  0  0  0
  -38.7983   56.7595   60.4007 H   0  0  0  0  0  0  0  0  0  0  0  0
  -37.3054   58.4125   59.4948 H   0  0  0  0  0  0  0  0  0  0  0  0
  -38.8258   58.2851   58.5910 H   0  0  0  0  0  0  0  0  0  0  0  0
  -36.9419   58.5755   57.1185 H   0  0  0  0  0  0  0  0  0  0  0  0
  -37.7419   57.0050   56.9113 H   0  0  0  0  0  0  0  0  0  0  0  0
  -35.3401   56.7996   56.7867 H   0  0  0  0  0  0  0  0  0  0  0  0
  -36.0319   55.9442   58.1780 H   0  0  0  0  0  0  0  0  0  0  0  0
  -34.6768   58.5902   58.2666 H   0  0  0  0  0  0  0  0  0  0  0  0
  -33.9986   57.0177   58.7603 H   0  0  0  0  0  0  0  0  0  0  0  0
  -35.6052   56.8374   60.5003 H   0  0  0  0  0  0  0  0  0  0  0  0
  -36.3122   58.3853   60.0078 H   0  0  0  0  0  0  0  0  0  0  0  0
  -34.2793   59.5179   60.5666 H   0  0  0  0  0  0  0  0  0  0  0  0
  -33.5672   57.9580   61.0505 H   0  0  0  0  0  0  0  0  0  0  0  0
  -36.6274   58.1683   64.0706 H   0  0  0  0  0  0  0  0  0  0  0  0
  -37.9610   58.4631   63.0423 H   0  0  0  0  0  0  0  0  0  0  0  0
  -37.7985   60.8886   63.5519 H   0  0  0  0  0  0  0  0  0  0  0  0
  -35.5824   60.1428   65.3795 H   0  0  0  0  0  0  0  0  0  0  0  0
  -35.4356   61.0386   63.8923 H   0  0  0  0  0  0  0  0  0  0  0  0
  -32.5793   62.8466   66.9320 H   0  0  0  0  0  0  0  0  0  0  0  0
  -32.8745   61.5099   65.8587 H   0  0  0  0  0  0  0  0  0  0  0  0
  -32.7406   61.3632   68.8454 H   0  0  0  0  0  0  0  0  0  0  0  0
  -30.7047   60.1176   68.5690 H   0  0  0  0  0  0  0  0  0  0  0  0
  -30.7820   60.3848   66.8350 H   0  0  0  0  0  0  0  0  0  0  0  0
  -41.0729   59.2998   66.3967 H   0  0  0  0  0  0  0  0  0  0  0  0
  -39.5885   58.3631   66.5511 H   0  0  0  0  0  0  0  0  0  0  0  0
  -41.6131   58.0723   64.3660 H   0  0  0  0  0  0  0  0  0  0  0  0
  -41.3843   56.9890   65.7602 H   0  0  0  0  0  0  0  0  0  0  0  0
  -39.2170   56.3906   64.9760 H   0  0  0  0  0  0  0  0  0  0  0  0
  -39.4254   57.4859   63.5915 H   0  0  0  0  0  0  0  0  0  0  0  0
  -41.0535   55.0481   64.1314 H   0  0  0  0  0  0  0  0  0  0  0  0
  -39.7381   55.2147   62.9426 H   0  0  0  0  0  0  0  0  0  0  0  0
  -41.8988   55.3285   61.8940 H   0  0  0  0  0  0  0  0  0  0  0  0
  -40.9751   56.8513   61.7724 H   0  0  0  0  0  0  0  0  0  0  0  0
  -42.3191   57.8397   63.4681 H   0  0  0  0  0  0  0  0  0  0  0  0
  -43.2371   56.3089   63.6033 H   0  0  0  0  0  0  0  0  0  0  0  0
  -44.1192   56.6035   61.4138 H   0  0  0  0  0  0  0  0  0  0  0  0
  -43.1963   58.0990   61.2310 H   0  0  0  0  0  0  0  0  0  0  0  0
  -44.9570   59.2096   62.1948 H   0  0  0  0  0  0  0  0  0  0  0  0
  -46.4001   58.4853   63.7608 H   0  0  0  0  0  0  0  0  0  0  0  0
  -45.0726   56.4756   64.9430 H   0  0  0  0  0  0  0  0  0  0  0  0
  -45.3353   55.7600   63.3466 H   0  0  0  0  0  0  0  0  0  0  0  0
  -47.7140   55.9978   63.6078 H   0  0  0  0  0  0  0  0  0  0  0  0
  -47.4470   56.7281   65.2071 H   0  0  0  0  0  0  0  0  0  0  0  0
  -46.7629   53.9331   64.4450 H   0  0  0  0  0  0  0  0  0  0  0  0
  -48.1635   54.4659   65.4026 H   0  0  0  0  0  0  0  0  0  0  0  0
  -45.3100   54.7834   66.1823 H   0  0  0  0  0  0  0  0  0  0  0  0
  -46.4670   53.5719   66.7973 H   0  0  0  0  0  0  0  0  0  0  0  0
  -46.6976   56.5149   67.1534 H   0  0  0  0  0  0  0  0  0  0  0  0
  -46.1466   55.3359   68.3631 H   0  0  0  0  0  0  0  0  0  0  0  0
  -48.8567   55.4162   67.1303 H   0  0  0  0  0  0  0  0  0  0  0  0
  -48.4012   55.9775   68.7598 H   0  0  0  0  0  0  0  0  0  0  0  0
  -47.8330   53.7602   69.3976 H   0  0  0  0  0  0  0  0  0  0  0  0
  -48.2529   53.1856   67.7754 H   0  0  0  0  0  0  0  0  0  0  0  0
  -50.1384   54.3971   69.7394 H   0  0  0  0  0  0  0  0  0  0  0  0
  -50.0194   52.7010   69.3365 H   0  0  0  0  0  0  0  0  0  0  0  0
  -50.5385   53.8517   68.1284 H   0  0  0  0  0  0  0  0  0  0  0  0
  1  4  1  0  0  0  0
  1 54  1  0  0  0  0
  1 55  1  0  0  0  0
  1 56  1  0  0  0  0
  2 29  2  0  0  0  0
  3  7  1  0  0  0  0
  3  9  2  6  0  0  0
  3 11  1  0  0  0  0
  3 13  1  0  0  0  0
  4  6  1  0  0  0  0
  4 57  1  0  0  0  0
  4 58  1  0  0  0  0
  5 29  1  0  0  0  0
  5 30  1  0  0  0  0
  6  8  1  0  0  0  0
  6 59  1  0  0  0  0
  6 60  1  0  0  0  0
  7 32  1  0  0  0  0
  8 10  1  0  0  0  0
  8 61  1  0  0  0  0
  8 62  1  0  0  0  0
 10 12  1  0  0  0  0
 10 63  1  0  0  0  0
 10 64  1  0  0  0  0
 11 65  1  0  0  0  0
 12 14  1  0  0  0  0
 12 66  1  0  0  0  0
 12 67  1  0  0  0  0
 13 33  1  0  0  0  0
 14 16  1  0  0  0  0
 14 68  1  0  0  0  0
 14 69  1  0  0  0  0
 15 35  1  0  0  0  0
 15 70  1  0  0  0  0
 16 18  1  0  0  0  0
 16 71  1  0  0  0  0
 16 72  1  0  0  0  0
 17 34  1  0  0  0  0
 17 73  1  0  0  0  0
 18 20  1  0  0  0  0
 18 74  1  0  0  0  0
 18 75  1  0  0  0  0
 19 31  1  0  0  0  0
 19 36  1  0  0  0  0
 20 22  1  0  0  0  0
 20 76  1  0  0  0  0
 20 77  1  0  0  0  0
 21 36  2  0  0  0  0
 22 23  1  0  0  0  0
 22 78  1  0  0  0  0
 22 79  1  0  0  0  0
 23 24  1  0  0  0  0
 23 80  1  0  0  0  0
 23 81  1  0  0  0  0
 24 25  1  0  0  0  0
 24 82  1  0  0  0  0
 24 83  1  0  0  0  0
 25 26  1  0  0  0  0
 25 84  1  0  0  0  0
 25 85  1  0  0  0  0
 26 27  1  0  0  0  0
 26 86  1  0  0  0  0
 26 87  1  0  0  0  0
 27 28  1  0  0  0  0
 27 88  1  0  0  0  0
 27 89  1  0  0  0  0
 28 29  1  0  0  0  0
 28 90  1  0  0  0  0
 28 91  1  0  0  0  0
 30 31  1  0  0  0  0
 30 92  1  0  0  0  0
 30 93  1  0  0  0  0
 31 32  1  0  0  0  0
 31 94  1  6  0  0  0
 32 95  1  0  0  0  0
 32 96  1  0  0  0  0
 33 34  1  0  0  0  0
 33 97  1  0  0  0  0
 33 98  1  0  0  0  0
 34 35  1  0  0  0  0
 34 99  1  1  0  0  0
 35100  1  0  0  0  0
 35101  1  0  0  0  0
 36 37  1  0  0  0  0
 37 38  1  0  0  0  0
 37102  1  0  0  0  0
 37103  1  0  0  0  0
 38 39  1  0  0  0  0
 38104  1  0  0  0  0
 38105  1  0  0  0  0
 39 40  1  0  0  0  0
 39106  1  0  0  0  0
 39107  1  0  0  0  0
 40 41  1  0  0  0  0
 40108  1  0  0  0  0
 40109  1  0  0  0  0
 41 42  1  0  0  0  0
 41110  1  0  0  0  0
 41111  1  0  0  0  0
 42 43  1  0  0  0  0
 42112  1  0  0  0  0
 42113  1  0  0  0  0
 43 44  1  0  0  0  0
 43114  1  0  0  0  0
 43115  1  0  0  0  0
 44 45  2  0  0  0  0
 44116  1  0  0  0  0
 45 46  1  0  0  0  0
 45117  1  0  0  0  0
 46 47  1  0  0  0  0
 46118  1  0  0  0  0
 46119  1  0  0  0  0
 47 48  1  0  0  0  0
 47120  1  0  0  0  0
 47121  1  0  0  0  0
 48 49  1  0  0  0  0
 48122  1  0  0  0  0
 48123  1  0  0  0  0
 49 50  1  0  0  0  0
 49124  1  0  0  0  0
 49125  1  0  0  0  0
 50 51  1  0  0  0  0
 50126  1  0  0  0  0
 50127  1  0  0  0  0
 51 52  1  0  0  0  0
 51128  1  0  0  0  0
 51129  1  0  0  0  0
 52 53  1  0  0  0  0
 52130  1  0  0  0  0
 52131  1  0  0  0  0
 53132  1  0  0  0  0
 53133  1  0  0  0  0
 53134  1  0  0  0  0
M  CHG  1   9  -1
M  END
$$$$