/media/chris/experiments/cd1a-new-docking/inputs/ligands/7ryo_ligand.pdb
 OpenBabel07032304133D

135137  0  0  1  0  0  0  0  0999 V2000
  -37.9843   59.6092   60.1567 N   0  0  0  0  0  0  0  0  0  0  0  0
  -46.0496   57.8116   49.9134 C   0  0  0  0  0  0  0  0  0  0  0  0
  -37.6236   57.9151   58.7096 O   0  0  0  0  0  0  0  0  0  0  0  0
  -44.7552   58.3902   50.4218 C   0  0  0  0  0  0  0  0  0  0  0  0
  -34.0017   55.5459   60.5756 N   0  0  0  0  0  0  0  0  0  0  0  0
  -34.7931   56.5209   58.7110 O   0  0  0  0  0  0  0  0  0  0  0  0
  -43.7231   58.6003   49.3288 C   0  0  0  0  0  0  0  0  0  0  0  0
  -34.4289   53.8383   57.5903 N   0  0  0  0  0  0  0  0  0  0  0  0
  -34.0988   52.0219   58.8845 O   0  0  0  0  0  0  0  0  0  0  0  0
  -42.3991   59.1679   49.8145 C   0  0  0  0  0  0  0  0  0  0  0  0
  -31.0173   55.7198   64.4289 N   0  0  0  0  0  0  0  0  0  0  0  0
  -34.1379   49.8310   57.3431 O   0  0  0  0  0  0  0  0  0  0  0  0
  -41.6925   58.2762   50.8264 C   0  0  0  0  0  0  0  0  0  0  0  0
  -34.4534   55.8572   65.5551 N   0  0  0  0  0  0  0  0  0  0  0  0
  -32.2087   56.3404   63.1145 O   0  0  0  0  0  0  0  0  0  0  0  0
  -41.3400   56.8965   50.2924 C   0  0  0  0  0  0  0  0  0  0  0  0
  -31.1741   56.7589   61.1561 O   0  0  0  0  0  0  0  0  0  0  0  0
  -40.6499   55.9952   51.3015 C   0  0  0  0  0  0  0  0  0  0  0  0
  -31.5760   53.9633   63.1389 O   0  0  0  0  0  0  0  0  0  0  0  0
  -41.4769   55.7042   52.5431 C   0  0  0  0  0  0  0  0  0  0  0  0
  -33.2304   57.1638   64.2031 O   0  0  0  0  0  0  0  0  0  0  0  0
  -40.7619   54.8171   53.5430 C   0  0  0  0  0  0  0  0  0  0  0  0
  -41.6033   54.5200   54.7693 C   0  0  0  0  0  0  0  0  0  0  0  0
  -42.0320   55.7486   55.5462 C   0  0  0  0  0  0  0  0  0  0  0  0
  -42.8814   56.7026   54.7294 C   0  0  0  0  0  0  0  0  0  0  0  0
  -43.3027   57.9466   55.4939 C   0  0  0  0  0  0  0  0  0  0  0  0
  -42.1335   58.7875   55.9710 C   0  0  0  0  0  0  0  0  0  0  0  0
  -41.1724   58.0582   56.8949 C   0  0  0  0  0  0  0  0  0  0  0  0
  -40.0184   58.9210   57.3753 C   0  0  0  0  0  0  0  0  0  0  0  0
  -39.1556   59.4773   56.2492 C   0  0  0  0  0  0  0  0  0  0  0  0
  -38.0245   60.3050   56.7748 C   0  0  0  0  0  0  0  0  0  0  0  0
  -37.3921   60.1741   57.9330 C   0  0  0  0  0  0  0  0  0  0  0  0
  -37.6945   59.1333   58.9408 C   0  0  0  0  0  0  0  0  0  0  0  0
  -38.2360   58.7337   61.2903 C   0  0  0  0  0  0  0  0  0  0  0  0
  -36.9560   58.4330   62.0390 C   0  0  0  0  0  0  0  0  0  0  0  0
  -35.8780   57.7610   61.2090 C   0  0  0  0  0  0  0  0  0  0  0  0
  -34.6110   57.4590   62.0020 C   0  0  0  0  0  0  0  0  0  0  0  0
  -33.5311   56.7980   61.1441 C   0  0  1  0  0  0  0  0  0  0  0  0
  -34.6037   55.5187   59.3841 C   0  0  0  0  0  0  0  0  0  0  0  0
  -35.0924   54.1562   58.8656 C   0  0  1  0  0  0  0  0  0  0  0  0
  -36.5994   54.2263   58.6378 C   0  0  0  0  0  0  0  0  0  0  0  0
  -34.7106   52.9836   59.7811 C   0  0  0  0  0  0  0  0  0  0  0  0
  -33.9287   52.6783   57.7073 C   0  0  0  0  0  0  0  0  0  0  0  0
  -33.1756   51.9546   56.6803 C   0  0  0  0  0  0  0  0  0  0  0  0
  -32.4261   52.6569   55.7356 C   0  0  0  0  0  0  0  0  0  0  0  0
  -31.9133   52.0102   54.6243 C   0  0  0  0  0  0  0  0  0  0  0  0
  -32.1360   50.6635   54.4361 C   0  0  0  0  0  0  0  0  0  0  0  0
  -32.8793   49.9455   55.3551 C   0  0  0  0  0  0  0  0  0  0  0  0
  -33.4049   50.5782   56.4773 C   0  0  0  0  0  0  0  0  0  0  0  0
  -32.2521   56.5942   61.9423 C   0  0  0  0  0  0  0  0  0  0  0  0
  -30.2472   55.6325   61.0086 C   0  0  2  0  0  0  0  0  0  0  0  0
  -31.0066   54.4777   60.4058 C   0  0  0  0  0  0  0  0  0  0  0  0
  -29.7499   55.3281   62.4084 C   0  0  0  0  0  0  0  0  0  0  0  0
  -30.8613   54.9375   63.3570 C   0  0  0  0  0  0  0  0  0  0  0  0
  -32.0516   55.4695   65.4174 C   0  0  1  0  0  0  0  0  0  0  0  0
  -31.5875   55.9472   66.7980 C   0  0  0  0  0  0  0  0  0  0  0  0
  -32.3761   55.3383   67.9523 C   0  0  0  0  0  0  0  0  0  0  0  0
  -33.8574   55.6598   67.9706 C   0  0  0  0  0  0  0  0  0  0  0  0
  -34.6275   55.1027   66.7917 C   0  0  0  0  0  0  0  0  0  0  0  0
  -33.2976   56.2377   65.0060 C   0  0  0  0  0  0  0  0  0  0  0  0
  -38.0287   60.5838   60.2886 H   0  0  0  0  0  0  0  0  0  0  0  0
  -46.7304   57.6890   50.7296 H   0  0  0  0  0  0  0  0  0  0  0  0
  -45.8615   56.8609   49.4599 H   0  0  0  0  0  0  0  0  0  0  0  0
  -46.4763   58.4739   49.1893 H   0  0  0  0  0  0  0  0  0  0  0  0
  -44.3471   57.7216   51.1507 H   0  0  0  0  0  0  0  0  0  0  0  0
  -44.9781   59.3508   50.8370 H   0  0  0  0  0  0  0  0  0  0  0  0
  -33.8750   54.7072   61.0754 H   0  0  0  0  0  0  0  0  0  0  0  0
  -44.1324   59.2765   48.6077 H   0  0  0  0  0  0  0  0  0  0  0  0
  -43.5095   57.6342   48.9214 H   0  0  0  0  0  0  0  0  0  0  0  0
  -42.5845   60.1177   50.2709 H   0  0  0  0  0  0  0  0  0  0  0  0
  -41.7578   59.2467   48.9616 H   0  0  0  0  0  0  0  0  0  0  0  0
  -30.4140   56.4880   64.5521 H   0  0  0  0  0  0  0  0  0  0  0  0
  -34.5058   50.2271   58.1085 H   0  0  0  0  0  0  0  0  0  0  0  0
  -42.3337   58.1555   51.6744 H   0  0  0  0  0  0  0  0  0  0  0  0
  -40.7699   58.7583   51.0740 H   0  0  0  0  0  0  0  0  0  0  0  0
  -35.2743   56.1125   65.0754 H   0  0  0  0  0  0  0  0  0  0  0  0
  -40.6895   57.0184   49.4516 H   0  0  0  0  0  0  0  0  0  0  0  0
  -42.2637   56.4208   50.0369 H   0  0  0  0  0  0  0  0  0  0  0  0
  -39.7402   56.4682   51.6073 H   0  0  0  0  0  0  0  0  0  0  0  0
  -40.4852   55.0569   50.8143 H   0  0  0  0  0  0  0  0  0  0  0  0
  -42.3814   55.2176   52.2428 H   0  0  0  0  0  0  0  0  0  0  0  0
  -41.6651   56.6402   53.0262 H   0  0  0  0  0  0  0  0  0  0  0  0
  -39.8637   55.3080   53.8550 H   0  0  0  0  0  0  0  0  0  0  0  0
  -40.5562   53.8853   53.0590 H   0  0  0  0  0  0  0  0  0  0  0  0
  -41.0333   53.8929   55.4226 H   0  0  0  0  0  0  0  0  0  0  0  0
  -42.4994   54.0517   54.4191 H   0  0  0  0  0  0  0  0  0  0  0  0
  -41.1553   56.2678   55.8731 H   0  0  0  0  0  0  0  0  0  0  0  0
  -42.6293   55.4138   56.3684 H   0  0  0  0  0  0  0  0  0  0  0  0
  -43.7627   56.1850   54.4130 H   0  0  0  0  0  0  0  0  0  0  0  0
  -42.2832   57.0282   53.9041 H   0  0  0  0  0  0  0  0  0  0  0  0
  -43.8724   57.6432   56.3473 H   0  0  0  0  0  0  0  0  0  0  0  0
  -43.8725   58.5524   54.8206 H   0  0  0  0  0  0  0  0  0  0  0  0
  -42.5227   59.6356   56.4946 H   0  0  0  0  0  0  0  0  0  0  0  0
  -41.5746   59.0565   55.0991 H   0  0  0  0  0  0  0  0  0  0  0  0
  -40.7703   57.2174   56.3694 H   0  0  0  0  0  0  0  0  0  0  0  0
  -41.7293   57.7682   57.7614 H   0  0  0  0  0  0  0  0  0  0  0  0
  -39.3977   58.3286   58.0146 H   0  0  0  0  0  0  0  0  0  0  0  0
  -40.4468   59.7599   57.8829 H   0  0  0  0  0  0  0  0  0  0  0  0
  -39.7647   60.0860   55.6141 H   0  0  0  0  0  0  0  0  0  0  0  0
  -38.7416   58.6524   55.7078 H   0  0  0  0  0  0  0  0  0  0  0  0
  -37.6978   61.0688   56.1625 H   0  0  0  0  0  0  0  0  0  0  0  0
  -36.6369   60.8443   58.1463 H   0  0  0  0  0  0  0  0  0  0  0  0
  -38.6582   57.8163   60.9368 H   0  0  0  0  0  0  0  0  0  0  0  0
  -38.9129   59.2259   61.9570 H   0  0  0  0  0  0  0  0  0  0  0  0
  -37.1937   57.7896   62.8603 H   0  0  0  0  0  0  0  0  0  0  0  0
  -36.5565   59.3772   62.3453 H   0  0  0  0  0  0  0  0  0  0  0  0
  -35.6238   58.4067   60.3945 H   0  0  0  0  0  0  0  0  0  0  0  0
  -36.2729   56.8255   60.8717 H   0  0  0  0  0  0  0  0  0  0  0  0
  -34.8590   56.8018   62.8091 H   0  0  0  0  0  0  0  0  0  0  0  0
  -34.2203   58.3886   62.3599 H   0  0  0  0  0  0  0  0  0  0  0  0
  -33.3097   57.4574   60.3310 H   0  0  0  0  0  0  0  0  0  0  0  0
  -36.8252   55.0532   57.9973 H   0  0  0  0  0  0  0  0  0  0  0  0
  -37.0963   54.3562   59.5765 H   0  0  0  0  0  0  0  0  0  0  0  0
  -36.9335   53.3188   58.1800 H   0  0  0  0  0  0  0  0  0  0  0  0
  -34.0165   53.2981   60.5322 H   0  0  0  0  0  0  0  0  0  0  0  0
  -35.5517   52.5803   60.3053 H   0  0  0  0  0  0  0  0  0  0  0  0
  -32.2529   53.6658   55.8665 H   0  0  0  0  0  0  0  0  0  0  0  0
  -31.3607   52.5401   53.9324 H   0  0  0  0  0  0  0  0  0  0  0  0
  -31.7468   50.1891   53.6064 H   0  0  0  0  0  0  0  0  0  0  0  0
  -33.0447   48.9374   55.2081 H   0  0  0  0  0  0  0  0  0  0  0  0
  -29.4159   55.8367   60.3666 H   0  0  0  0  0  0  0  0  0  0  0  0
  -31.8488   54.2438   61.0229 H   0  0  0  0  0  0  0  0  0  0  0  0
  -30.3646   53.6242   60.3399 H   0  0  0  0  0  0  0  0  0  0  0  0
  -31.3452   54.7457   59.4268 H   0  0  0  0  0  0  0  0  0  0  0  0
  -29.2623   56.1989   62.7942 H   0  0  0  0  0  0  0  0  0  0  0  0
  -29.0816   54.4954   62.3372 H   0  0  0  0  0  0  0  0  0  0  0  0
  -32.2587   54.4211   65.4709 H   0  0  0  0  0  0  0  0  0  0  0  0
  -31.6928   57.0112   66.8406 H   0  0  0  0  0  0  0  0  0  0  0  0
  -30.5710   55.6336   66.9128 H   0  0  0  0  0  0  0  0  0  0  0  0
  -31.9500   55.6942   68.8669 H   0  0  0  0  0  0  0  0  0  0  0  0
  -32.3068   54.2777   67.8288 H   0  0  0  0  0  0  0  0  0  0  0  0
  -33.9699   56.7239   67.9725 H   0  0  0  0  0  0  0  0  0  0  0  0
  -34.2615   55.1990   68.8477 H   0  0  0  0  0  0  0  0  0  0  0  0
  -34.3003   54.0984   66.6212 H   0  0  0  0  0  0  0  0  0  0  0  0
  -35.6652   55.1624   67.0455 H   0  0  0  0  0  0  0  0  0  0  0  0
  1 33  1  0  0  0  0
  1 34  1  0  0  0  0
  1 61  1  0  0  0  0
  2  4  1  0  0  0  0
  2 62  1  0  0  0  0
  2 63  1  0  0  0  0
  2 64  1  0  0  0  0
  3 33  2  0  0  0  0
  4  7  1  0  0  0  0
  4 65  1  0  0  0  0
  4 66  1  0  0  0  0
  5 38  1  0  0  0  0
  5 39  1  0  0  0  0
  5 67  1  0  0  0  0
  6 39  2  0  0  0  0
  7 10  1  0  0  0  0
  7 68  1  0  0  0  0
  7 69  1  0  0  0  0
  8 40  1  0  0  0  0
  8 43  2  0  0  0  0
  9 42  1  0  0  0  0
  9 43  1  0  0  0  0
 10 13  1  0  0  0  0
 10 70  1  0  0  0  0
 10 71  1  0  0  0  0
 11 54  1  0  0  0  0
 11 55  1  0  0  0  0
 11 72  1  0  0  0  0
 12 49  1  0  0  0  0
 12 73  1  0  0  0  0
 13 16  1  0  0  0  0
 13 74  1  0  0  0  0
 13 75  1  0  0  0  0
 14 59  1  0  0  0  0
 14 60  1  0  0  0  0
 14 76  1  0  0  0  0
 15 50  2  0  0  0  0
 16 18  1  0  0  0  0
 16 77  1  0  0  0  0
 16 78  1  0  0  0  0
 17 50  1  0  0  0  0
 17 51  1  0  0  0  0
 18 20  1  0  0  0  0
 18 79  1  0  0  0  0
 18 80  1  0  0  0  0
 19 54  2  0  0  0  0
 20 22  1  0  0  0  0
 20 81  1  0  0  0  0
 20 82  1  0  0  0  0
 21 60  2  0  0  0  0
 22 23  1  0  0  0  0
 22 83  1  0  0  0  0
 22 84  1  0  0  0  0
 23 24  1  0  0  0  0
 23 85  1  0  0  0  0
 23 86  1  0  0  0  0
 24 25  1  0  0  0  0
 24 87  1  0  0  0  0
 24 88  1  0  0  0  0
 25 26  1  0  0  0  0
 25 89  1  0  0  0  0
 25 90  1  0  0  0  0
 26 27  1  0  0  0  0
 26 91  1  0  0  0  0
 26 92  1  0  0  0  0
 27 28  1  0  0  0  0
 27 93  1  0  0  0  0
 27 94  1  0  0  0  0
 28 29  1  0  0  0  0
 28 95  1  0  0  0  0
 28 96  1  0  0  0  0
 29 30  1  0  0  0  0
 29 97  1  0  0  0  0
 29 98  1  0  0  0  0
 30 31  1  0  0  0  0
 30 99  1  0  0  0  0
 30100  1  0  0  0  0
 31 32  2  0  0  0  0
 31101  1  0  0  0  0
 32 33  1  0  0  0  0
 32102  1  0  0  0  0
 34 35  1  0  0  0  0
 34103  1  0  0  0  0
 34104  1  0  0  0  0
 35 36  1  0  0  0  0
 35105  1  0  0  0  0
 35106  1  0  0  0  0
 36 37  1  0  0  0  0
 36107  1  0  0  0  0
 36108  1  0  0  0  0
 37 38  1  0  0  0  0
 37109  1  0  0  0  0
 37110  1  0  0  0  0
 38 50  1  0  0  0  0
 38111  1  6  0  0  0
 40 39  1  1  0  0  0
 40 41  1  0  0  0  0
 40 42  1  0  0  0  0
 41112  1  0  0  0  0
 41113  1  0  0  0  0
 41114  1  0  0  0  0
 42115  1  0  0  0  0
 42116  1  0  0  0  0
 43 44  1  0  0  0  0
 44 45  2  0  0  0  0
 44 49  1  0  0  0  0
 45 46  1  0  0  0  0
 45117  1  0  0  0  0
 46 47  2  0  0  0  0
 46118  1  0  0  0  0
 47 48  1  0  0  0  0
 47119  1  0  0  0  0
 48 49  2  0  0  0  0
 48120  1  0  0  0  0
 51 52  1  0  0  0  0
 51 53  1  0  0  0  0
 51121  1  6  0  0  0
 52122  1  0  0  0  0
 52123  1  0  0  0  0
 52124  1  0  0  0  0
 53 54  1  0  0  0  0
 53125  1  0  0  0  0
 53126  1  0  0  0  0
 55 56  1  0  0  0  0
 55 60  1  0  0  0  0
 55127  1  1  0  0  0
 56 57  1  0  0  0  0
 56128  1  0  0  0  0
 56129  1  0  0  0  0
 57 58  1  0  0  0  0
 57130  1  0  0  0  0
 57131  1  0  0  0  0
 58 59  1  0  0  0  0
 58132  1  0  0  0  0
 58133  1  0  0  0  0
 59134  1  0  0  0  0
 59135  1  0  0  0  0
M  END
$$$$