/media/chris/experiments/cd1a-new-docking/inputs/ligands/7ryo_ligand.pdb
 OpenBabel07032304133D

135137  0  0  1  0  0  0  0  0999 V2000
  -37.6438   60.3330   63.4177 N   0  0  0  0  0  0  0  0  0  0  0  0
  -41.5210   67.4598   60.8663 C   0  0  0  0  0  0  0  0  0  0  0  0
  -39.1160   61.9983   63.8087 O   0  0  0  0  0  0  0  0  0  0  0  0
  -41.2843   66.1169   60.2266 C   0  0  0  0  0  0  0  0  0  0  0  0
  -35.8432   57.0722   64.0991 N   0  0  0  0  0  0  0  0  0  0  0  0
  -35.7434   55.3146   65.4972 O   0  0  0  0  0  0  0  0  0  0  0  0
  -42.2432   65.0450   60.7121 C   0  0  0  0  0  0  0  0  0  0  0  0
  -36.7698   58.3702   66.5799 N   0  0  0  0  0  0  0  0  0  0  0  0
  -38.8170   58.7770   65.7274 O   0  0  0  0  0  0  0  0  0  0  0  0
  -43.7085   65.3389   60.4337 C   0  0  0  0  0  0  0  0  0  0  0  0
  -35.1628   52.8820   67.5268 N   0  0  0  0  0  0  0  0  0  0  0  0
  -35.9956   60.3281   68.3776 O   0  0  0  0  0  0  0  0  0  0  0  0
  -44.0273   65.4789   58.9515 C   0  0  0  0  0  0  0  0  0  0  0  0
  -34.2534   54.0354   70.8338 N   0  0  0  0  0  0  0  0  0  0  0  0
  -32.4985   56.6279   63.6242 O   0  0  0  0  0  0  0  0  0  0  0  0
  -43.7299   64.2300   58.1361 C   0  0  0  0  0  0  0  0  0  0  0  0
  -33.7924   55.2407   64.8416 O   0  0  0  0  0  0  0  0  0  0  0  0
  -42.2791   63.7836   58.1863 C   0  0  0  0  0  0  0  0  0  0  0  0
  -34.0324   52.2926   65.6730 O   0  0  0  0  0  0  0  0  0  0  0  0
  -41.9804   62.5452   57.3572 C   0  0  0  0  0  0  0  0  0  0  0  0
  -34.2050   52.0224   69.8457 O   0  0  0  0  0  0  0  0  0  0  0  0
  -42.7910   61.3350   57.7774 C   0  0  0  0  0  0  0  0  0  0  0  0
  -42.5553   60.9455   59.2241 C   0  0  0  0  0  0  0  0  0  0  0  0
  -42.9237   62.0189   60.2286 C   0  0  0  0  0  0  0  0  0  0  0  0
  -42.6609   61.6062   61.6636 C   0  0  0  0  0  0  0  0  0  0  0  0
  -41.2012   61.2926   61.9473 C   0  0  0  0  0  0  0  0  0  0  0  0
  -40.2734   62.4695   61.7114 C   0  0  0  0  0  0  0  0  0  0  0  0
  -40.5677   63.6833   62.5770 C   0  0  0  0  0  0  0  0  0  0  0  0
  -39.6396   64.8566   62.3145 C   0  0  0  0  0  0  0  0  0  0  0  0
  -38.1671   64.5403   62.5460 C   0  0  0  0  0  0  0  0  0  0  0  0
  -37.6878   63.4439   61.6466 C   0  0  0  0  0  0  0  0  0  0  0  0
  -37.6882   62.1394   61.8848 C   0  0  0  0  0  0  0  0  0  0  0  0
  -38.2001   61.5133   63.1244 C   0  0  0  0  0  0  0  0  0  0  0  0
  -36.5610   59.7701   62.6268 C   0  0  0  0  0  0  0  0  0  0  0  0
  -36.9560   58.4330   62.0390 C   0  0  0  0  0  0  0  0  0  0  0  0
  -35.8780   57.7610   61.2090 C   0  0  0  0  0  0  0  0  0  0  0  0
  -34.6110   57.4590   62.0020 C   0  0  0  0  0  0  0  0  0  0  0  0
  -34.8704   56.5130   63.1754 C   0  0  1  0  0  0  0  0  0  0  0  0
  -36.2005   56.4086   65.2014 C   0  0  0  0  0  0  0  0  0  0  0  0
  -37.2531   57.0600   66.1134 C   0  0  1  0  0  0  0  0  0  0  0  0
  -37.4862   56.1574   67.3212 C   0  0  0  0  0  0  0  0  0  0  0  0
  -38.5666   57.3892   65.3889 C   0  0  0  0  0  0  0  0  0  0  0  0
  -37.6787   59.2174   66.3240 C   0  0  0  0  0  0  0  0  0  0  0  0
  -37.6301   60.6518   66.6173 C   0  0  0  0  0  0  0  0  0  0  0  0
  -38.3059   61.5575   65.7986 C   0  0  0  0  0  0  0  0  0  0  0  0
  -38.0737   62.9173   65.9144 C   0  0  0  0  0  0  0  0  0  0  0  0
  -37.1718   63.3947   66.8402 C   0  0  0  0  0  0  0  0  0  0  0  0
  -36.4855   62.5178   67.6605 C   0  0  0  0  0  0  0  0  0  0  0  0
  -36.7037   61.1476   67.5577 C   0  0  0  0  0  0  0  0  0  0  0  0
  -33.5727   56.1622   63.8877 C   0  0  0  0  0  0  0  0  0  0  0  0
  -32.6451   54.7645   65.6205 C   0  0  2  0  0  0  0  0  0  0  0  0
  -31.9214   53.7266   64.8003 C   0  0  0  0  0  0  0  0  0  0  0  0
  -33.2293   54.1878   66.8955 C   0  0  0  0  0  0  0  0  0  0  0  0
  -34.1730   53.0333   66.6422 C   0  0  0  0  0  0  0  0  0  0  0  0
  -35.3227   53.7770   68.6596 C   0  0  1  0  0  0  0  0  0  0  0  0
  -36.8045   53.8924   69.0346 C   0  0  0  0  0  0  0  0  0  0  0  0
  -37.1264   55.1179   69.8830 C   0  0  0  0  0  0  0  0  0  0  0  0
  -36.4373   55.1758   71.2319 C   0  0  0  0  0  0  0  0  0  0  0  0
  -34.9292   55.2883   71.1534 C   0  0  0  0  0  0  0  0  0  0  0  0
  -34.5448   53.2019   69.8326 C   0  0  0  0  0  0  0  0  0  0  0  0
  -37.9782   59.8288   64.1944 H   0  0  0  0  0  0  0  0  0  0  0  0
  -40.8155   68.1669   60.4828 H   0  0  0  0  0  0  0  0  0  0  0  0
  -41.4016   67.3759   61.9263 H   0  0  0  0  0  0  0  0  0  0  0  0
  -42.5141   67.7905   60.6444 H   0  0  0  0  0  0  0  0  0  0  0  0
  -40.2852   65.8055   60.4496 H   0  0  0  0  0  0  0  0  0  0  0  0
  -41.4442   66.2334   59.1751 H   0  0  0  0  0  0  0  0  0  0  0  0
  -36.2438   57.9514   63.9098 H   0  0  0  0  0  0  0  0  0  0  0  0
  -42.1184   64.9387   61.7694 H   0  0  0  0  0  0  0  0  0  0  0  0
  -42.0030   64.1535   60.1713 H   0  0  0  0  0  0  0  0  0  0  0  0
  -43.9701   66.2530   60.9245 H   0  0  0  0  0  0  0  0  0  0  0  0
  -44.2723   64.5066   60.8004 H   0  0  0  0  0  0  0  0  0  0  0  0
  -35.8021   52.1429   67.4074 H   0  0  0  0  0  0  0  0  0  0  0  0
  -36.1193   59.4003   68.3333 H   0  0  0  0  0  0  0  0  0  0  0  0
  -43.4455   66.2854   58.5566 H   0  0  0  0  0  0  0  0  0  0  0  0
  -45.0798   65.6557   58.8758 H   0  0  0  0  0  0  0  0  0  0  0  0
  -33.5038   53.7776   71.4178 H   0  0  0  0  0  0  0  0  0  0  0  0
  -43.9851   64.4270   57.1158 H   0  0  0  0  0  0  0  0  0  0  0  0
  -44.3097   63.4388   58.5636 H   0  0  0  0  0  0  0  0  0  0  0  0
  -42.0272   63.5744   59.2050 H   0  0  0  0  0  0  0  0  0  0  0  0
  -41.6973   64.5798   57.7711 H   0  0  0  0  0  0  0  0  0  0  0  0
  -40.9414   62.3104   57.4588 H   0  0  0  0  0  0  0  0  0  0  0  0
  -42.2451   62.7690   56.3449 H   0  0  0  0  0  0  0  0  0  0  0  0
  -42.5219   60.5091   57.1525 H   0  0  0  0  0  0  0  0  0  0  0  0
  -43.8256   61.5880   57.6755 H   0  0  0  0  0  0  0  0  0  0  0  0
  -41.5169   60.7167   59.3443 H   0  0  0  0  0  0  0  0  0  0  0  0
  -43.1921   60.1091   59.4231 H   0  0  0  0  0  0  0  0  0  0  0  0
  -43.9651   62.2407   60.1233 H   0  0  0  0  0  0  0  0  0  0  0  0
  -42.3098   62.8712   60.0243 H   0  0  0  0  0  0  0  0  0  0  0  0
  -43.2423   60.7335   61.8767 H   0  0  0  0  0  0  0  0  0  0  0  0
  -42.9306   62.4354   62.2837 H   0  0  0  0  0  0  0  0  0  0  0  0
  -40.8973   60.4884   61.3102 H   0  0  0  0  0  0  0  0  0  0  0  0
  -41.1294   61.0376   62.9840 H   0  0  0  0  0  0  0  0  0  0  0  0
  -40.3574   62.7616   60.6854 H   0  0  0  0  0  0  0  0  0  0  0  0
  -39.2892   62.1399   61.9715 H   0  0  0  0  0  0  0  0  0  0  0  0
  -40.4705   63.3982   63.6037 H   0  0  0  0  0  0  0  0  0  0  0  0
  -41.5588   64.0072   62.3368 H   0  0  0  0  0  0  0  0  0  0  0  0
  -39.9184   65.6593   62.9648 H   0  0  0  0  0  0  0  0  0  0  0  0
  -39.7446   65.1116   61.2806 H   0  0  0  0  0  0  0  0  0  0  0  0
  -38.0334   64.2373   63.5635 H   0  0  0  0  0  0  0  0  0  0  0  0
  -37.5990   65.4209   62.3300 H   0  0  0  0  0  0  0  0  0  0  0  0
  -37.3122   63.7385   60.7317 H   0  0  0  0  0  0  0  0  0  0  0  0
  -37.3051   61.5178   61.1556 H   0  0  0  0  0  0  0  0  0  0  0  0
  -35.7032   59.6374   63.2524 H   0  0  0  0  0  0  0  0  0  0  0  0
  -36.3399   60.4428   61.8246 H   0  0  0  0  0  0  0  0  0  0  0  0
  -37.8119   58.5833   61.4147 H   0  0  0  0  0  0  0  0  0  0  0  0
  -37.1476   57.7838   62.8677 H   0  0  0  0  0  0  0  0  0  0  0  0
  -35.6238   58.4067   60.3945 H   0  0  0  0  0  0  0  0  0  0  0  0
  -36.2729   56.8255   60.8717 H   0  0  0  0  0  0  0  0  0  0  0  0
  -34.2161   58.3779   62.3821 H   0  0  0  0  0  0  0  0  0  0  0  0
  -33.9192   56.9787   61.3420 H   0  0  0  0  0  0  0  0  0  0  0  0
  -35.2841   55.6083   62.7813 H   0  0  0  0  0  0  0  0  0  0  0  0
  -36.5508   55.9511   67.7981 H   0  0  0  0  0  0  0  0  0  0  0  0
  -37.9327   55.2397   66.9998 H   0  0  0  0  0  0  0  0  0  0  0  0
  -38.1385   56.6485   68.0128 H   0  0  0  0  0  0  0  0  0  0  0  0
  -38.4577   57.2697   64.3312 H   0  0  0  0  0  0  0  0  0  0  0  0
  -39.3693   56.7438   65.6787 H   0  0  0  0  0  0  0  0  0  0  0  0
  -38.9838   61.2112   65.1018 H   0  0  0  0  0  0  0  0  0  0  0  0
  -38.5793   63.5776   65.3034 H   0  0  0  0  0  0  0  0  0  0  0  0
  -37.0077   64.4103   66.9218 H   0  0  0  0  0  0  0  0  0  0  0  0
  -35.8097   62.8809   68.3508 H   0  0  0  0  0  0  0  0  0  0  0  0
  -31.9374   55.5299   65.8616 H   0  0  0  0  0  0  0  0  0  0  0  0
  -32.6001   52.9416   64.5392 H   0  0  0  0  0  0  0  0  0  0  0  0
  -31.1113   53.3226   65.3707 H   0  0  0  0  0  0  0  0  0  0  0  0
  -31.5395   54.1790   63.9091 H   0  0  0  0  0  0  0  0  0  0  0  0
  -33.7652   54.9609   67.4054 H   0  0  0  0  0  0  0  0  0  0  0  0
  -32.4152   53.8141   67.4808 H   0  0  0  0  0  0  0  0  0  0  0  0
  -34.9572   54.7509   68.4092 H   0  0  0  0  0  0  0  0  0  0  0  0
  -37.0833   53.0178   69.5844 H   0  0  0  0  0  0  0  0  0  0  0  0
  -37.3524   53.9909   68.1208 H   0  0  0  0  0  0  0  0  0  0  0  0
  -38.1830   55.1342   70.0514 H   0  0  0  0  0  0  0  0  0  0  0  0
  -36.7651   55.9607   69.3315 H   0  0  0  0  0  0  0  0  0  0  0  0
  -36.6798   54.2841   71.7713 H   0  0  0  0  0  0  0  0  0  0  0  0
  -36.7871   56.0623   71.7183 H   0  0  0  0  0  0  0  0  0  0  0  0
  -34.6847   56.0042   70.3967 H   0  0  0  0  0  0  0  0  0  0  0  0
  -34.5911   55.5816   72.1253 H   0  0  0  0  0  0  0  0  0  0  0  0
  1 33  1  0  0  0  0
  1 34  1  0  0  0  0
  1 61  1  0  0  0  0
  2  4  1  0  0  0  0
  2 62  1  0  0  0  0
  2 63  1  0  0  0  0
  2 64  1  0  0  0  0
  3 33  2  0  0  0  0
  4  7  1  0  0  0  0
  4 65  1  0  0  0  0
  4 66  1  0  0  0  0
  5 38  1  0  0  0  0
  5 39  1  0  0  0  0
  5 67  1  0  0  0  0
  6 39  2  0  0  0  0
  7 10  1  0  0  0  0
  7 68  1  0  0  0  0
  7 69  1  0  0  0  0
  8 40  1  0  0  0  0
  8 43  2  0  0  0  0
  9 42  1  0  0  0  0
  9 43  1  0  0  0  0
 10 13  1  0  0  0  0
 10 70  1  0  0  0  0
 10 71  1  0  0  0  0
 11 54  1  0  0  0  0
 11 55  1  0  0  0  0
 11 72  1  0  0  0  0
 12 49  1  0  0  0  0
 12 73  1  0  0  0  0
 13 16  1  0  0  0  0
 13 74  1  0  0  0  0
 13 75  1  0  0  0  0
 14 59  1  0  0  0  0
 14 60  1  0  0  0  0
 14 76  1  0  0  0  0
 15 50  2  0  0  0  0
 16 18  1  0  0  0  0
 16 77  1  0  0  0  0
 16 78  1  0  0  0  0
 17 50  1  0  0  0  0
 17 51  1  0  0  0  0
 18 20  1  0  0  0  0
 18 79  1  0  0  0  0
 18 80  1  0  0  0  0
 19 54  2  0  0  0  0
 20 22  1  0  0  0  0
 20 81  1  0  0  0  0
 20 82  1  0  0  0  0
 21 60  2  0  0  0  0
 22 23  1  0  0  0  0
 22 83  1  0  0  0  0
 22 84  1  0  0  0  0
 23 24  1  0  0  0  0
 23 85  1  0  0  0  0
 23 86  1  0  0  0  0
 24 25  1  0  0  0  0
 24 87  1  0  0  0  0
 24 88  1  0  0  0  0
 25 26  1  0  0  0  0
 25 89  1  0  0  0  0
 25 90  1  0  0  0  0
 26 27  1  0  0  0  0
 26 91  1  0  0  0  0
 26 92  1  0  0  0  0
 27 28  1  0  0  0  0
 27 93  1  0  0  0  0
 27 94  1  0  0  0  0
 28 29  1  0  0  0  0
 28 95  1  0  0  0  0
 28 96  1  0  0  0  0
 29 30  1  0  0  0  0
 29 97  1  0  0  0  0
 29 98  1  0  0  0  0
 30 31  1  0  0  0  0
 30 99  1  0  0  0  0
 30100  1  0  0  0  0
 31 32  2  0  0  0  0
 31101  1  0  0  0  0
 32 33  1  0  0  0  0
 32102  1  0  0  0  0
 34 35  1  0  0  0  0
 34103  1  0  0  0  0
 34104  1  0  0  0  0
 35 36  1  0  0  0  0
 35105  1  0  0  0  0
 35106  1  0  0  0  0
 36 37  1  0  0  0  0
 36107  1  0  0  0  0
 36108  1  0  0  0  0
 37 38  1  0  0  0  0
 37109  1  0  0  0  0
 37110  1  0  0  0  0
 38 50  1  0  0  0  0
 38111  1  6  0  0  0
 40 39  1  6  0  0  0
 40 41  1  0  0  0  0
 40 42  1  0  0  0  0
 41112  1  0  0  0  0
 41113  1  0  0  0  0
 41114  1  0  0  0  0
 42115  1  0  0  0  0
 42116  1  0  0  0  0
 43 44  1  0  0  0  0
 44 45  2  0  0  0  0
 44 49  1  0  0  0  0
 45 46  1  0  0  0  0
 45117  1  0  0  0  0
 46 47  2  0  0  0  0
 46118  1  0  0  0  0
 47 48  1  0  0  0  0
 47119  1  0  0  0  0
 48 49  2  0  0  0  0
 48120  1  0  0  0  0
 51 52  1  0  0  0  0
 51 53  1  0  0  0  0
 51121  1  1  0  0  0
 52122  1  0  0  0  0
 52123  1  0  0  0  0
 52124  1  0  0  0  0
 53 54  1  0  0  0  0
 53125  1  0  0  0  0
 53126  1  0  0  0  0
 55 56  1  0  0  0  0
 55 60  1  0  0  0  0
 55127  1  6  0  0  0
 56 57  1  0  0  0  0
 56128  1  0  0  0  0
 56129  1  0  0  0  0
 57 58  1  0  0  0  0
 57130  1  0  0  0  0
 57131  1  0  0  0  0
 58 59  1  0  0  0  0
 58132  1  0  0  0  0
 58133  1  0  0  0  0
 59134  1  0  0  0  0
 59135  1  0  0  0  0
M  END
$$$$