/media/chris/experiments/cd1a-new-docking/inputs/ligands/7ryo_ligand.pdb
 OpenBabel07032304133D

135137  0  0  1  0  0  0  0  0999 V2000
  -37.9573   56.3471   62.8329 N   0  0  0  0  0  0  0  0  0  0  0  0
  -40.6644   49.3344   60.5842 C   0  0  0  0  0  0  0  0  0  0  0  0
  -36.4560   55.1543   64.0234 O   0  0  0  0  0  0  0  0  0  0  0  0
  -40.4974   47.8396   60.6616 C   0  0  0  0  0  0  0  0  0  0  0  0
  -33.1324   57.6580   60.0424 N   0  0  0  0  0  0  0  0  0  0  0  0
  -31.4954   58.6525   61.2194 O   0  0  0  0  0  0  0  0  0  0  0  0
  -39.8831   47.2400   59.4097 C   0  0  0  0  0  0  0  0  0  0  0  0
  -30.3491   59.7390   58.9825 N   0  0  0  0  0  0  0  0  0  0  0  0
  -30.7522   58.9355   56.9149 O   0  0  0  0  0  0  0  0  0  0  0  0
  -38.4907   47.7556   59.0832 C   0  0  0  0  0  0  0  0  0  0  0  0
  -33.1206   52.2795   58.5188 N   0  0  0  0  0  0  0  0  0  0  0  0
  -29.1978   60.2272   55.1563 O   0  0  0  0  0  0  0  0  0  0  0  0
  -37.4674   47.4683   60.1734 C   0  0  0  0  0  0  0  0  0  0  0  0
  -33.3143   54.4401   55.6226 N   0  0  0  0  0  0  0  0  0  0  0  0
  -34.8171   54.7521   61.1807 O   0  0  0  0  0  0  0  0  0  0  0  0
  -36.0741   47.9944   59.8655 C   0  0  0  0  0  0  0  0  0  0  0  0
  -33.3336   55.1008   59.5200 O   0  0  0  0  0  0  0  0  0  0  0  0
  -35.0437   47.6968   60.9409 C   0  0  0  0  0  0  0  0  0  0  0  0
  -34.8294   51.6660   59.8475 O   0  0  0  0  0  0  0  0  0  0  0  0
  -35.3855   48.2718   62.3057 C   0  0  0  0  0  0  0  0  0  0  0  0
  -34.3038   52.4991   56.1555 O   0  0  0  0  0  0  0  0  0  0  0  0
  -34.3353   47.9770   63.3585 C   0  0  0  0  0  0  0  0  0  0  0  0
  -34.6956   48.5409   64.7194 C   0  0  0  0  0  0  0  0  0  0  0  0
  -33.6620   48.2818   65.7972 C   0  0  0  0  0  0  0  0  0  0  0  0
  -34.0586   48.8426   67.1488 C   0  0  0  0  0  0  0  0  0  0  0  0
  -34.2832   50.3457   67.1402 C   0  0  0  0  0  0  0  0  0  0  0  0
  -35.3921   50.7855   66.2028 C   0  0  0  0  0  0  0  0  0  0  0  0
  -35.6228   52.2870   66.1655 C   0  0  0  0  0  0  0  0  0  0  0  0
  -36.7475   52.7063   65.2347 C   0  0  0  0  0  0  0  0  0  0  0  0
  -36.5324   52.2923   63.7841 C   0  0  0  0  0  0  0  0  0  0  0  0
  -37.6582   52.7429   62.9065 C   0  0  0  0  0  0  0  0  0  0  0  0
  -38.0620   53.9850   62.6769 C   0  0  0  0  0  0  0  0  0  0  0  0
  -37.4329   55.1923   63.2575 C   0  0  0  0  0  0  0  0  0  0  0  0
  -37.4201   57.6362   63.2386 C   0  0  0  0  0  0  0  0  0  0  0  0
  -36.9560   58.4330   62.0390 C   0  0  0  0  0  0  0  0  0  0  0  0
  -35.8780   57.7610   61.2090 C   0  0  0  0  0  0  0  0  0  0  0  0
  -34.6110   57.4590   62.0020 C   0  0  0  0  0  0  0  0  0  0  0  0
  -33.5311   56.7980   61.1441 C   0  0  1  0  0  0  0  0  0  0  0  0
  -32.1284   58.5272   60.1816 C   0  0  0  0  0  0  0  0  0  0  0  0
  -31.7856   59.4163   58.9749 C   0  0  1  0  0  0  0  0  0  0  0  0
  -32.5864   60.7113   59.0725 C   0  0  0  0  0  0  0  0  0  0  0  0
  -31.9984   58.7178   57.6238 C   0  0  0  0  0  0  0  0  0  0  0  0
  -29.8925   59.4422   57.8367 C   0  0  0  0  0  0  0  0  0  0  0  0
  -28.5054   59.5984   57.3924 C   0  0  0  0  0  0  0  0  0  0  0  0
  -27.4605   59.5073   58.3128 C   0  0  0  0  0  0  0  0  0  0  0  0
  -26.1781   59.8906   57.9595 C   0  0  0  0  0  0  0  0  0  0  0  0
  -25.9162   60.3673   56.6935 C   0  0  0  0  0  0  0  0  0  0  0  0
  -26.9350   60.4718   55.7641 C   0  0  0  0  0  0  0  0  0  0  0  0
  -28.2309   60.0936   56.1010 C   0  0  0  0  0  0  0  0  0  0  0  0
  -33.9929   55.4382   60.6419 C   0  0  0  0  0  0  0  0  0  0  0  0
  -34.1161   54.8618   58.3033 C   0  0  2  0  0  0  0  0  0  0  0  0
  -34.8537   56.1325   57.9645 C   0  0  0  0  0  0  0  0  0  0  0  0
  -35.0566   53.7214   58.6412 C   0  0  0  0  0  0  0  0  0  0  0  0
  -34.3303   52.4613   59.0562 C   0  0  0  0  0  0  0  0  0  0  0  0
  -32.5393   53.2385   57.5957 C   0  0  1  0  0  0  0  0  0  0  0  0
  -31.1594   52.7560   57.1345 C   0  0  0  0  0  0  0  0  0  0  0  0
  -30.2904   53.8622   56.5460 C   0  0  0  0  0  0  0  0  0  0  0  0
  -30.8409   54.5309   55.3020 C   0  0  0  0  0  0  0  0  0  0  0  0
  -32.1322   55.2897   55.5257 C   0  0  0  0  0  0  0  0  0  0  0  0
  -33.4628   53.3608   56.3940 C   0  0  0  0  0  0  0  0  0  0  0  0
  -38.7321   56.3237   62.2260 H   0  0  0  0  0  0  0  0  0  0  0  0
  -41.1002   49.6922   61.4936 H   0  0  0  0  0  0  0  0  0  0  0  0
  -41.3034   49.5798   59.7618 H   0  0  0  0  0  0  0  0  0  0  0  0
  -39.7082   49.7933   60.4422 H   0  0  0  0  0  0  0  0  0  0  0  0
  -41.4599   47.3974   60.8133 H   0  0  0  0  0  0  0  0  0  0  0  0
  -39.8290   47.6362   61.4721 H   0  0  0  0  0  0  0  0  0  0  0  0
  -33.6085   57.5990   59.1827 H   0  0  0  0  0  0  0  0  0  0  0  0
  -40.5246   47.4627   58.5828 H   0  0  0  0  0  0  0  0  0  0  0  0
  -39.7847   46.1901   59.5912 H   0  0  0  0  0  0  0  0  0  0  0  0
  -38.5461   48.8146   58.9409 H   0  0  0  0  0  0  0  0  0  0  0  0
  -38.1640   47.2449   58.2015 H   0  0  0  0  0  0  0  0  0  0  0  0
  -32.6086   51.4726   58.7553 H   0  0  0  0  0  0  0  0  0  0  0  0
  -30.0807   59.9814   55.3515 H   0  0  0  0  0  0  0  0  0  0  0  0
  -37.4055   46.4084   60.3063 H   0  0  0  0  0  0  0  0  0  0  0  0
  -37.8025   47.9742   61.0547 H   0  0  0  0  0  0  0  0  0  0  0  0
  -34.0830   54.6888   55.0600 H   0  0  0  0  0  0  0  0  0  0  0  0
  -36.1355   49.0557   59.7443 H   0  0  0  0  0  0  0  0  0  0  0  0
  -35.7458   47.4937   58.9786 H   0  0  0  0  0  0  0  0  0  0  0  0
  -34.1054   48.1063   60.6295 H   0  0  0  0  0  0  0  0  0  0  0  0
  -35.0143   46.6332   61.0534 H   0  0  0  0  0  0  0  0  0  0  0  0
  -36.3162   47.8535   62.6275 H   0  0  0  0  0  0  0  0  0  0  0  0
  -35.4381   49.3351   62.1985 H   0  0  0  0  0  0  0  0  0  0  0  0
  -33.4066   48.4062   63.0451 H   0  0  0  0  0  0  0  0  0  0  0  0
  -34.2667   46.9137   63.4573 H   0  0  0  0  0  0  0  0  0  0  0  0
  -35.6204   48.1013   65.0299 H   0  0  0  0  0  0  0  0  0  0  0  0
  -34.7570   49.6028   64.6038 H   0  0  0  0  0  0  0  0  0  0  0  0
  -32.7387   48.7329   65.4990 H   0  0  0  0  0  0  0  0  0  0  0  0
  -33.5732   47.2211   65.9056 H   0  0  0  0  0  0  0  0  0  0  0  0
  -33.2805   48.6206   67.8490 H   0  0  0  0  0  0  0  0  0  0  0  0
  -34.9889   48.3873   67.4175 H   0  0  0  0  0  0  0  0  0  0  0  0
  -33.3744   50.8223   66.8372 H   0  0  0  0  0  0  0  0  0  0  0  0
  -34.5775   50.6260   68.1299 H   0  0  0  0  0  0  0  0  0  0  0  0
  -36.3008   50.3148   66.5151 H   0  0  0  0  0  0  0  0  0  0  0  0
  -35.0911   50.4978   65.2171 H   0  0  0  0  0  0  0  0  0  0  0  0
  -34.7200   52.7600   65.8397 H   0  0  0  0  0  0  0  0  0  0  0  0
  -35.9050   52.5858   67.1534 H   0  0  0  0  0  0  0  0  0  0  0  0
  -36.8363   53.7720   65.2718 H   0  0  0  0  0  0  0  0  0  0  0  0
  -37.6328   52.2093   65.5724 H   0  0  0  0  0  0  0  0  0  0  0  0
  -36.4600   51.2259   63.7350 H   0  0  0  0  0  0  0  0  0  0  0  0
  -35.6325   52.7545   63.4355 H   0  0  0  0  0  0  0  0  0  0  0  0
  -38.1829   51.9978   62.4223 H   0  0  0  0  0  0  0  0  0  0  0  0
  -38.8708   54.1191   62.0500 H   0  0  0  0  0  0  0  0  0  0  0  0
  -36.5906   57.4783   63.8958 H   0  0  0  0  0  0  0  0  0  0  0  0
  -38.1924   58.1861   63.7346 H   0  0  0  0  0  0  0  0  0  0  0  0
  -36.5724   59.3687   62.3887 H   0  0  0  0  0  0  0  0  0  0  0  0
  -37.8072   58.5391   61.3994 H   0  0  0  0  0  0  0  0  0  0  0  0
  -35.6238   58.4067   60.3945 H   0  0  0  0  0  0  0  0  0  0  0  0
  -36.2729   56.8255   60.8717 H   0  0  0  0  0  0  0  0  0  0  0  0
  -34.8590   56.8018   62.8091 H   0  0  0  0  0  0  0  0  0  0  0  0
  -34.2203   58.3886   62.3599 H   0  0  0  0  0  0  0  0  0  0  0  0
  -32.6704   56.6456   61.7612 H   0  0  0  0  0  0  0  0  0  0  0  0
  -32.4125   61.1673   60.0248 H   0  0  0  0  0  0  0  0  0  0  0  0
  -33.6288   60.4950   58.9657 H   0  0  0  0  0  0  0  0  0  0  0  0
  -32.2794   61.3799   58.2956 H   0  0  0  0  0  0  0  0  0  0  0  0
  -32.1802   57.6723   57.7608 H   0  0  0  0  0  0  0  0  0  0  0  0
  -32.8458   59.0986   57.0928 H   0  0  0  0  0  0  0  0  0  0  0  0
  -27.6450   59.1515   59.2637 H   0  0  0  0  0  0  0  0  0  0  0  0
  -25.4133   59.8188   58.6487 H   0  0  0  0  0  0  0  0  0  0  0  0
  -24.9564   60.6473   56.4379 H   0  0  0  0  0  0  0  0  0  0  0  0
  -26.7335   60.8314   54.8180 H   0  0  0  0  0  0  0  0  0  0  0  0
  -33.5236   54.6008   57.4514 H   0  0  0  0  0  0  0  0  0  0  0  0
  -35.4594   56.4259   58.7963 H   0  0  0  0  0  0  0  0  0  0  0  0
  -35.4767   55.9664   57.1106 H   0  0  0  0  0  0  0  0  0  0  0  0
  -34.1484   56.9070   57.7461 H   0  0  0  0  0  0  0  0  0  0  0  0
  -35.6524   53.5037   57.7795 H   0  0  0  0  0  0  0  0  0  0  0  0
  -35.6551   54.0345   59.4710 H   0  0  0  0  0  0  0  0  0  0  0  0
  -32.4254   54.1866   58.0786 H   0  0  0  0  0  0  0  0  0  0  0  0
  -31.2970   52.0011   56.3887 H   0  0  0  0  0  0  0  0  0  0  0  0
  -30.6514   52.3853   58.0003 H   0  0  0  0  0  0  0  0  0  0  0  0
  -29.3393   53.4385   56.2994 H   0  0  0  0  0  0  0  0  0  0  0  0
  -30.2408   54.6264   57.2934 H   0  0  0  0  0  0  0  0  0  0  0  0
  -31.0188   53.7753   54.5656 H   0  0  0  0  0  0  0  0  0  0  0  0
  -30.1117   55.2493   54.9906 H   0  0  0  0  0  0  0  0  0  0  0  0
  -32.0421   55.8449   56.4359 H   0  0  0  0  0  0  0  0  0  0  0  0
  -32.2729   55.9172   54.6705 H   0  0  0  0  0  0  0  0  0  0  0  0
  1 33  1  0  0  0  0
  1 34  1  0  0  0  0
  1 61  1  0  0  0  0
  2  4  1  0  0  0  0
  2 62  1  0  0  0  0
  2 63  1  0  0  0  0
  2 64  1  0  0  0  0
  3 33  2  0  0  0  0
  4  7  1  0  0  0  0
  4 65  1  0  0  0  0
  4 66  1  0  0  0  0
  5 38  1  0  0  0  0
  5 39  1  0  0  0  0
  5 67  1  0  0  0  0
  6 39  2  0  0  0  0
  7 10  1  0  0  0  0
  7 68  1  0  0  0  0
  7 69  1  0  0  0  0
  8 40  1  0  0  0  0
  8 43  2  0  0  0  0
  9 42  1  0  0  0  0
  9 43  1  0  0  0  0
 10 13  1  0  0  0  0
 10 70  1  0  0  0  0
 10 71  1  0  0  0  0
 11 54  1  0  0  0  0
 11 55  1  0  0  0  0
 11 72  1  0  0  0  0
 12 49  1  0  0  0  0
 12 73  1  0  0  0  0
 13 16  1  0  0  0  0
 13 74  1  0  0  0  0
 13 75  1  0  0  0  0
 14 59  1  0  0  0  0
 14 60  1  0  0  0  0
 14 76  1  0  0  0  0
 15 50  2  0  0  0  0
 16 18  1  0  0  0  0
 16 77  1  0  0  0  0
 16 78  1  0  0  0  0
 17 50  1  0  0  0  0
 17 51  1  0  0  0  0
 18 20  1  0  0  0  0
 18 79  1  0  0  0  0
 18 80  1  0  0  0  0
 19 54  2  0  0  0  0
 20 22  1  0  0  0  0
 20 81  1  0  0  0  0
 20 82  1  0  0  0  0
 21 60  2  0  0  0  0
 22 23  1  0  0  0  0
 22 83  1  0  0  0  0
 22 84  1  0  0  0  0
 23 24  1  0  0  0  0
 23 85  1  0  0  0  0
 23 86  1  0  0  0  0
 24 25  1  0  0  0  0
 24 87  1  0  0  0  0
 24 88  1  0  0  0  0
 25 26  1  0  0  0  0
 25 89  1  0  0  0  0
 25 90  1  0  0  0  0
 26 27  1  0  0  0  0
 26 91  1  0  0  0  0
 26 92  1  0  0  0  0
 27 28  1  0  0  0  0
 27 93  1  0  0  0  0
 27 94  1  0  0  0  0
 28 29  1  0  0  0  0
 28 95  1  0  0  0  0
 28 96  1  0  0  0  0
 29 30  1  0  0  0  0
 29 97  1  0  0  0  0
 29 98  1  0  0  0  0
 30 31  1  0  0  0  0
 30 99  1  0  0  0  0
 30100  1  0  0  0  0
 31 32  2  0  0  0  0
 31101  1  0  0  0  0
 32 33  1  0  0  0  0
 32102  1  0  0  0  0
 34 35  1  0  0  0  0
 34103  1  0  0  0  0
 34104  1  0  0  0  0
 35 36  1  0  0  0  0
 35105  1  0  0  0  0
 35106  1  0  0  0  0
 36 37  1  0  0  0  0
 36107  1  0  0  0  0
 36108  1  0  0  0  0
 37 38  1  0  0  0  0
 37109  1  0  0  0  0
 37110  1  0  0  0  0
 38 50  1  0  0  0  0
 38111  1  1  0  0  0
 40 39  1  1  0  0  0
 40 41  1  0  0  0  0
 40 42  1  0  0  0  0
 41112  1  0  0  0  0
 41113  1  0  0  0  0
 41114  1  0  0  0  0
 42115  1  0  0  0  0
 42116  1  0  0  0  0
 43 44  1  0  0  0  0
 44 45  2  0  0  0  0
 44 49  1  0  0  0  0
 45 46  1  0  0  0  0
 45117  1  0  0  0  0
 46 47  2  0  0  0  0
 46118  1  0  0  0  0
 47 48  1  0  0  0  0
 47119  1  0  0  0  0
 48 49  2  0  0  0  0
 48120  1  0  0  0  0
 51 52  1  0  0  0  0
 51 53  1  0  0  0  0
 51121  1  6  0  0  0
 52122  1  0  0  0  0
 52123  1  0  0  0  0
 52124  1  0  0  0  0
 53 54  1  0  0  0  0
 53125  1  0  0  0  0
 53126  1  0  0  0  0
 55 56  1  0  0  0  0
 55 60  1  0  0  0  0
 55127  1  1  0  0  0
 56 57  1  0  0  0  0
 56128  1  0  0  0  0
 56129  1  0  0  0  0
 57 58  1  0  0  0  0
 57130  1  0  0  0  0
 57131  1  0  0  0  0
 58 59  1  0  0  0  0
 58132  1  0  0  0  0
 58133  1  0  0  0  0
 59134  1  0  0  0  0
 59135  1  0  0  0  0
M  END
$$$$