/media/chris/experiments/cd1a-new-docking/inputs/ligands/7ryo_ligand.pdb
 OpenBabel07032304133D

135137  0  0  1  0  0  0  0  0999 V2000
  -37.9843   59.6092   60.1567 N   0  0  0  0  0  0  0  0  0  0  0  0
  -40.8106   52.2176   58.4096 C   0  0  0  0  0  0  0  0  0  0  0  0
  -37.6236   57.9151   58.7096 O   0  0  0  0  0  0  0  0  0  0  0  0
  -41.9746   52.8708   59.1074 C   0  0  0  0  0  0  0  0  0  0  0  0
  -34.8919   59.3849   63.5113 N   0  0  0  0  0  0  0  0  0  0  0  0
  -34.1477   58.2506   65.3039 O   0  0  0  0  0  0  0  0  0  0  0  0
  -42.0986   54.3532   58.8054 C   0  0  0  0  0  0  0  0  0  0  0  0
  -35.1935   60.5725   66.7531 N   0  0  0  0  0  0  0  0  0  0  0  0
  -36.5818   62.0697   65.7969 O   0  0  0  0  0  0  0  0  0  0  0  0
  -40.8829   55.1785   59.1950 C   0  0  0  0  0  0  0  0  0  0  0  0
  -32.0547   63.3374   64.0888 N   0  0  0  0  0  0  0  0  0  0  0  0
  -34.4473   61.3441   69.3050 O   0  0  0  0  0  0  0  0  0  0  0  0
  -39.6091   54.7579   58.4747 C   0  0  0  0  0  0  0  0  0  0  0  0
  -30.9720   65.1014   67.0569 N   0  0  0  0  0  0  0  0  0  0  0  0
  -33.6992   59.4909   60.3213 O   0  0  0  0  0  0  0  0  0  0  0  0
  -38.3822   55.5656   58.8690 C   0  0  0  0  0  0  0  0  0  0  0  0
  -32.8623   60.7142   62.0195 O   0  0  0  0  0  0  0  0  0  0  0  0
  -37.1109   55.1629   58.1421 C   0  0  0  0  0  0  0  0  0  0  0  0
  -30.1806   62.1854   63.6171 O   0  0  0  0  0  0  0  0  0  0  0  0
  -37.1810   55.3219   56.6321 C   0  0  0  0  0  0  0  0  0  0  0  0
  -30.3979   65.2454   64.8935 O   0  0  0  0  0  0  0  0  0  0  0  0
  -35.9076   54.8983   55.9269 C   0  0  0  0  0  0  0  0  0  0  0  0
  -35.9836   55.0774   54.4228 C   0  0  0  0  0  0  0  0  0  0  0  0
  -36.2107   56.5071   53.9741 C   0  0  0  0  0  0  0  0  0  0  0  0
  -35.1063   57.4500   54.4099 C   0  0  0  0  0  0  0  0  0  0  0  0
  -35.3326   58.8898   53.9796 C   0  0  0  0  0  0  0  0  0  0  0  0
  -36.6013   59.4978   54.5473 C   0  0  0  0  0  0  0  0  0  0  0  0
  -37.8748   58.7624   54.1642 C   0  0  0  0  0  0  0  0  0  0  0  0
  -39.1353   59.3955   54.7277 C   0  0  0  0  0  0  0  0  0  0  0  0
  -39.1556   59.4773   56.2492 C   0  0  0  0  0  0  0  0  0  0  0  0
  -38.0245   60.3050   56.7748 C   0  0  0  0  0  0  0  0  0  0  0  0
  -37.3921   60.1741   57.9330 C   0  0  0  0  0  0  0  0  0  0  0  0
  -37.6945   59.1333   58.9408 C   0  0  0  0  0  0  0  0  0  0  0  0
  -38.2360   58.7337   61.2903 C   0  0  0  0  0  0  0  0  0  0  0  0
  -36.9560   58.4330   62.0390 C   0  0  0  0  0  0  0  0  0  0  0  0
  -35.8780   57.7610   61.2090 C   0  0  0  0  0  0  0  0  0  0  0  0
  -34.6110   57.4590   62.0020 C   0  0  0  0  0  0  0  0  0  0  0  0
  -33.9807   58.7203   62.5945 C   0  0  1  0  0  0  0  0  0  0  0  0
  -34.8939   59.0841   64.8122 C   0  0  0  0  0  0  0  0  0  0  0  0
  -35.9053   59.8164   65.7094 C   0  0  1  0  0  0  0  0  0  0  0  0
  -36.8125   58.7854   66.3741 C   0  0  0  0  0  0  0  0  0  0  0  0
  -36.7146   60.8889   64.9655 C   0  0  0  0  0  0  0  0  0  0  0  0
  -35.6267   61.7642   66.7135 C   0  0  0  0  0  0  0  0  0  0  0  0
  -35.1995   62.8679   67.5766 C   0  0  0  0  0  0  0  0  0  0  0  0
  -35.2216   64.1792   67.0999 C   0  0  0  0  0  0  0  0  0  0  0  0
  -34.5989   65.1938   67.8062 C   0  0  0  0  0  0  0  0  0  0  0  0
  -33.9487   64.9224   68.9903 C   0  0  0  0  0  0  0  0  0  0  0  0
  -33.9082   63.6305   69.4823 C   0  0  0  0  0  0  0  0  0  0  0  0
  -34.5264   62.5969   68.7857 C   0  0  0  0  0  0  0  0  0  0  0  0
  -33.5193   59.6651   61.4950 C   0  0  0  0  0  0  0  0  0  0  0  0
  -31.8009   61.3349   61.2209 C   0  0  2  0  0  0  0  0  0  0  0  0
  -30.5557   60.4970   61.3661 C   0  0  0  0  0  0  0  0  0  0  0  0
  -31.6268   62.7301   61.7887 C   0  0  0  0  0  0  0  0  0  0  0  0
  -31.2175   62.7274   63.2448 C   0  0  0  0  0  0  0  0  0  0  0  0
  -31.7934   63.4017   65.5161 C   0  0  1  0  0  0  0  0  0  0  0  0
  -30.9883   62.1752   65.9600 C   0  0  0  0  0  0  0  0  0  0  0  0
  -31.0508   61.9138   67.4610 C   0  0  0  0  0  0  0  0  0  0  0  0
  -30.4886   63.0149   68.3381 C   0  0  0  0  0  0  0  0  0  0  0  0
  -31.2504   64.3212   68.2579 C   0  0  0  0  0  0  0  0  0  0  0  0
  -30.9930   64.6638   65.7959 C   0  0  0  0  0  0  0  0  0  0  0  0
  -38.0287   60.5838   60.2886 H   0  0  0  0  0  0  0  0  0  0  0  0
  -40.7799   51.1786   58.6634 H   0  0  0  0  0  0  0  0  0  0  0  0
  -39.9002   52.6873   58.7187 H   0  0  0  0  0  0  0  0  0  0  0  0
  -40.9246   52.3229   57.3509 H   0  0  0  0  0  0  0  0  0  0  0  0
  -41.8503   52.7482   60.1630 H   0  0  0  0  0  0  0  0  0  0  0  0
  -42.8653   52.3981   58.7495 H   0  0  0  0  0  0  0  0  0  0  0  0
  -35.5154   60.0655   63.1688 H   0  0  0  0  0  0  0  0  0  0  0  0
  -42.9454   54.7332   59.3377 H   0  0  0  0  0  0  0  0  0  0  0  0
  -42.1990   54.4406   57.7437 H   0  0  0  0  0  0  0  0  0  0  0  0
  -40.7264   55.0752   60.2484 H   0  0  0  0  0  0  0  0  0  0  0  0
  -41.0852   56.1907   58.9129 H   0  0  0  0  0  0  0  0  0  0  0  0
  -32.8721   63.7552   63.7330 H   0  0  0  0  0  0  0  0  0  0  0  0
  -34.8529   60.6261   68.8602 H   0  0  0  0  0  0  0  0  0  0  0  0
  -39.7639   54.8726   57.4221 H   0  0  0  0  0  0  0  0  0  0  0  0
  -39.4155   53.7432   58.7535 H   0  0  0  0  0  0  0  0  0  0  0  0
  -30.7450   66.0500   67.1904 H   0  0  0  0  0  0  0  0  0  0  0  0
  -38.2218   55.4407   59.9195 H   0  0  0  0  0  0  0  0  0  0  0  0
  -38.5827   56.5810   58.5976 H   0  0  0  0  0  0  0  0  0  0  0  0
  -36.9091   54.1355   58.3625 H   0  0  0  0  0  0  0  0  0  0  0  0
  -36.3388   55.8194   58.4853 H   0  0  0  0  0  0  0  0  0  0  0  0
  -37.3681   56.3510   56.4069 H   0  0  0  0  0  0  0  0  0  0  0  0
  -37.9655   54.6844   56.2815 H   0  0  0  0  0  0  0  0  0  0  0  0
  -35.7259   53.8655   56.1398 H   0  0  0  0  0  0  0  0  0  0  0  0
  -35.1163   55.5220   56.2869 H   0  0  0  0  0  0  0  0  0  0  0  0
  -36.7904   54.4788   54.0547 H   0  0  0  0  0  0  0  0  0  0  0  0
  -35.0328   54.7815   54.0313 H   0  0  0  0  0  0  0  0  0  0  0  0
  -37.1353   56.8511   54.3883 H   0  0  0  0  0  0  0  0  0  0  0  0
  -36.2263   56.5069   52.9042 H   0  0  0  0  0  0  0  0  0  0  0  0
  -34.1845   57.1107   53.9855 H   0  0  0  0  0  0  0  0  0  0  0  0
  -35.0888   57.4406   55.4797 H   0  0  0  0  0  0  0  0  0  0  0  0
  -35.3912   58.9191   52.9116 H   0  0  0  0  0  0  0  0  0  0  0  0
  -34.5120   59.4640   54.3563 H   0  0  0  0  0  0  0  0  0  0  0  0
  -36.6771   60.5049   54.1940 H   0  0  0  0  0  0  0  0  0  0  0  0
  -36.5205   59.4348   55.6123 H   0  0  0  0  0  0  0  0  0  0  0  0
  -37.8084   57.7586   54.5286 H   0  0  0  0  0  0  0  0  0  0  0  0
  -37.9525   58.8039   53.0979 H   0  0  0  0  0  0  0  0  0  0  0  0
  -39.9756   58.8144   54.4099 H   0  0  0  0  0  0  0  0  0  0  0  0
  -39.1698   60.4002   54.3613 H   0  0  0  0  0  0  0  0  0  0  0  0
  -39.0773   58.4885   56.6506 H   0  0  0  0  0  0  0  0  0  0  0  0
  -40.0734   59.9403   56.5459 H   0  0  0  0  0  0  0  0  0  0  0  0
  -37.6978   61.0688   56.1625 H   0  0  0  0  0  0  0  0  0  0  0  0
  -36.6369   60.8443   58.1463 H   0  0  0  0  0  0  0  0  0  0  0  0
  -38.6582   57.8163   60.9368 H   0  0  0  0  0  0  0  0  0  0  0  0
  -38.9129   59.2259   61.9570 H   0  0  0  0  0  0  0  0  0  0  0  0
  -37.1937   57.7896   62.8603 H   0  0  0  0  0  0  0  0  0  0  0  0
  -36.5565   59.3772   62.3453 H   0  0  0  0  0  0  0  0  0  0  0  0
  -35.6238   58.4067   60.3945 H   0  0  0  0  0  0  0  0  0  0  0  0
  -36.2729   56.8255   60.8717 H   0  0  0  0  0  0  0  0  0  0  0  0
  -33.9009   56.9930   61.3512 H   0  0  0  0  0  0  0  0  0  0  0  0
  -34.8793   56.8156   62.8138 H   0  0  0  0  0  0  0  0  0  0  0  0
  -33.1195   58.4233   63.1557 H   0  0  0  0  0  0  0  0  0  0  0  0
  -36.2139   58.0573   66.8806 H   0  0  0  0  0  0  0  0  0  0  0  0
  -37.4082   58.3012   65.6287 H   0  0  0  0  0  0  0  0  0  0  0  0
  -37.4517   59.2745   67.0792 H   0  0  0  0  0  0  0  0  0  0  0  0
  -36.3093   61.0628   63.9906 H   0  0  0  0  0  0  0  0  0  0  0  0
  -37.7350   60.6040   64.8155 H   0  0  0  0  0  0  0  0  0  0  0  0
  -35.7058   64.3941   66.2142 H   0  0  0  0  0  0  0  0  0  0  0  0
  -34.6217   66.1598   67.4436 H   0  0  0  0  0  0  0  0  0  0  0  0
  -33.4902   65.6858   69.5119 H   0  0  0  0  0  0  0  0  0  0  0  0
  -33.4181   63.4326   70.3687 H   0  0  0  0  0  0  0  0  0  0  0  0
  -32.0238   61.3955   60.1762 H   0  0  0  0  0  0  0  0  0  0  0  0
  -30.3006   60.4136   62.4019 H   0  0  0  0  0  0  0  0  0  0  0  0
  -29.7499   60.9609   60.8366 H   0  0  0  0  0  0  0  0  0  0  0  0
  -30.7329   59.5218   60.9628 H   0  0  0  0  0  0  0  0  0  0  0  0
  -32.5549   63.2545   61.6961 H   0  0  0  0  0  0  0  0  0  0  0  0
  -30.8433   63.2056   61.2364 H   0  0  0  0  0  0  0  0  0  0  0  0
  -32.7174   63.4169   66.0556 H   0  0  0  0  0  0  0  0  0  0  0  0
  -29.9651   62.3249   65.6851 H   0  0  0  0  0  0  0  0  0  0  0  0
  -31.4200   61.3246   65.4753 H   0  0  0  0  0  0  0  0  0  0  0  0
  -30.5011   61.0182   67.6629 H   0  0  0  0  0  0  0  0  0  0  0  0
  -32.0904   61.8453   67.7046 H   0  0  0  0  0  0  0  0  0  0  0  0
  -29.4771   63.1973   68.0408 H   0  0  0  0  0  0  0  0  0  0  0  0
  -30.5682   62.6738   69.3491 H   0  0  0  0  0  0  0  0  0  0  0  0
  -32.2973   64.1015   68.2805 H   0  0  0  0  0  0  0  0  0  0  0  0
  -30.9340   64.9140   69.0906 H   0  0  0  0  0  0  0  0  0  0  0  0
  1 33  1  0  0  0  0
  1 34  1  0  0  0  0
  1 61  1  0  0  0  0
  2  4  1  0  0  0  0
  2 62  1  0  0  0  0
  2 63  1  0  0  0  0
  2 64  1  0  0  0  0
  3 33  2  0  0  0  0
  4  7  1  0  0  0  0
  4 65  1  0  0  0  0
  4 66  1  0  0  0  0
  5 38  1  0  0  0  0
  5 39  1  0  0  0  0
  5 67  1  0  0  0  0
  6 39  2  0  0  0  0
  7 10  1  0  0  0  0
  7 68  1  0  0  0  0
  7 69  1  0  0  0  0
  8 40  1  0  0  0  0
  8 43  2  0  0  0  0
  9 42  1  0  0  0  0
  9 43  1  0  0  0  0
 10 13  1  0  0  0  0
 10 70  1  0  0  0  0
 10 71  1  0  0  0  0
 11 54  1  0  0  0  0
 11 55  1  0  0  0  0
 11 72  1  0  0  0  0
 12 49  1  0  0  0  0
 12 73  1  0  0  0  0
 13 16  1  0  0  0  0
 13 74  1  0  0  0  0
 13 75  1  0  0  0  0
 14 59  1  0  0  0  0
 14 60  1  0  0  0  0
 14 76  1  0  0  0  0
 15 50  2  0  0  0  0
 16 18  1  0  0  0  0
 16 77  1  0  0  0  0
 16 78  1  0  0  0  0
 17 50  1  0  0  0  0
 17 51  1  0  0  0  0
 18 20  1  0  0  0  0
 18 79  1  0  0  0  0
 18 80  1  0  0  0  0
 19 54  2  0  0  0  0
 20 22  1  0  0  0  0
 20 81  1  0  0  0  0
 20 82  1  0  0  0  0
 21 60  2  0  0  0  0
 22 23  1  0  0  0  0
 22 83  1  0  0  0  0
 22 84  1  0  0  0  0
 23 24  1  0  0  0  0
 23 85  1  0  0  0  0
 23 86  1  0  0  0  0
 24 25  1  0  0  0  0
 24 87  1  0  0  0  0
 24 88  1  0  0  0  0
 25 26  1  0  0  0  0
 25 89  1  0  0  0  0
 25 90  1  0  0  0  0
 26 27  1  0  0  0  0
 26 91  1  0  0  0  0
 26 92  1  0  0  0  0
 27 28  1  0  0  0  0
 27 93  1  0  0  0  0
 27 94  1  0  0  0  0
 28 29  1  0  0  0  0
 28 95  1  0  0  0  0
 28 96  1  0  0  0  0
 29 30  1  0  0  0  0
 29 97  1  0  0  0  0
 29 98  1  0  0  0  0
 30 31  1  0  0  0  0
 30 99  1  0  0  0  0
 30100  1  0  0  0  0
 31 32  2  0  0  0  0
 31101  1  0  0  0  0
 32 33  1  0  0  0  0
 32102  1  0  0  0  0
 34 35  1  0  0  0  0
 34103  1  0  0  0  0
 34104  1  0  0  0  0
 35 36  1  0  0  0  0
 35105  1  0  0  0  0
 35106  1  0  0  0  0
 36 37  1  0  0  0  0
 36107  1  0  0  0  0
 36108  1  0  0  0  0
 37 38  1  0  0  0  0
 37109  1  0  0  0  0
 37110  1  0  0  0  0
 38 50  1  0  0  0  0
 38111  1  1  0  0  0
 40 39  1  6  0  0  0
 40 41  1  0  0  0  0
 40 42  1  0  0  0  0
 41112  1  0  0  0  0
 41113  1  0  0  0  0
 41114  1  0  0  0  0
 42115  1  0  0  0  0
 42116  1  0  0  0  0
 43 44  1  0  0  0  0
 44 45  2  0  0  0  0
 44 49  1  0  0  0  0
 45 46  1  0  0  0  0
 45117  1  0  0  0  0
 46 47  2  0  0  0  0
 46118  1  0  0  0  0
 47 48  1  0  0  0  0
 47119  1  0  0  0  0
 48 49  2  0  0  0  0
 48120  1  0  0  0  0
 51 52  1  0  0  0  0
 51 53  1  0  0  0  0
 51121  1  6  0  0  0
 52122  1  0  0  0  0
 52123  1  0  0  0  0
 52124  1  0  0  0  0
 53 54  1  0  0  0  0
 53125  1  0  0  0  0
 53126  1  0  0  0  0
 55 56  1  0  0  0  0
 55 60  1  0  0  0  0
 55127  1  1  0  0  0
 56 57  1  0  0  0  0
 56128  1  0  0  0  0
 56129  1  0  0  0  0
 57 58  1  0  0  0  0
 57130  1  0  0  0  0
 57131  1  0  0  0  0
 58 59  1  0  0  0  0
 58132  1  0  0  0  0
 58133  1  0  0  0  0
 59134  1  0  0  0  0
 59135  1  0  0  0  0
M  END
$$$$