/media/chris/experiments/cd1a-new-docking/inputs/ligands/7ryo_ligand.pdb
 OpenBabel07032304133D

135137  0  0  1  0  0  0  0  0999 V2000
  -37.6438   60.3330   63.4177 N   0  0  0  0  0  0  0  0  0  0  0  0
  -40.8043   65.6939   56.1860 C   0  0  0  0  0  0  0  0  0  0  0  0
  -38.7405   62.1314   64.2281 O   0  0  0  0  0  0  0  0  0  0  0  0
  -41.1995   67.1362   56.0061 C   0  0  0  0  0  0  0  0  0  0  0  0
  -35.8432   57.0722   64.0991 N   0  0  0  0  0  0  0  0  0  0  0  0
  -35.7434   55.3146   65.4972 O   0  0  0  0  0  0  0  0  0  0  0  0
  -42.6448   67.3120   55.5772 C   0  0  0  0  0  0  0  0  0  0  0  0
  -38.4292   56.1818   66.2276 N   0  0  0  0  0  0  0  0  0  0  0  0
  -37.8522   56.6580   68.3544 O   0  0  0  0  0  0  0  0  0  0  0  0
  -43.6646   66.7649   56.5629 C   0  0  0  0  0  0  0  0  0  0  0  0
  -32.3427   56.2806   66.7549 N   0  0  0  0  0  0  0  0  0  0  0  0
  -39.2397   56.0135   70.2848 O   0  0  0  0  0  0  0  0  0  0  0  0
  -45.1055   66.9379   56.1024 C   0  0  0  0  0  0  0  0  0  0  0  0
  -33.2976   56.6732   70.2230 N   0  0  0  0  0  0  0  0  0  0  0  0
  -33.4754   55.3715   64.7853 O   0  0  0  0  0  0  0  0  0  0  0  0
  -45.4245   66.2292   54.7951 C   0  0  0  0  0  0  0  0  0  0  0  0
  -32.5510   56.8775   63.3860 O   0  0  0  0  0  0  0  0  0  0  0  0
  -45.2319   64.7233   54.8393 C   0  0  0  0  0  0  0  0  0  0  0  0
  -30.5726   57.5187   66.1258 O   0  0  0  0  0  0  0  0  0  0  0  0
  -43.8176   64.2870   55.1851 C   0  0  0  0  0  0  0  0  0  0  0  0
  -33.7590   55.1192   68.6729 O   0  0  0  0  0  0  0  0  0  0  0  0
  -43.6452   62.7811   55.2067 C   0  0  0  0  0  0  0  0  0  0  0  0
  -44.5574   62.1013   56.2097 C   0  0  0  0  0  0  0  0  0  0  0  0
  -44.3608   62.5558   57.6420 C   0  0  0  0  0  0  0  0  0  0  0  0
  -42.9530   62.3201   58.1530 C   0  0  0  0  0  0  0  0  0  0  0  0
  -42.7494   62.7568   59.5944 C   0  0  0  0  0  0  0  0  0  0  0  0
  -41.3357   62.5359   60.0987 C   0  0  0  0  0  0  0  0  0  0  0  0
  -41.1137   62.9501   61.5439 C   0  0  0  0  0  0  0  0  0  0  0  0
  -39.6889   62.7372   62.0252 C   0  0  0  0  0  0  0  0  0  0  0  0
  -38.6496   63.5284   61.2404 C   0  0  0  0  0  0  0  0  0  0  0  0
  -37.2629   63.2714   61.7419 C   0  0  0  0  0  0  0  0  0  0  0  0
  -36.8930   62.4743   62.7351 C   0  0  0  0  0  0  0  0  0  0  0  0
  -37.8229   61.6526   63.5417 C   0  0  0  0  0  0  0  0  0  0  0  0
  -36.5610   59.7701   62.6268 C   0  0  0  0  0  0  0  0  0  0  0  0
  -36.9560   58.4330   62.0390 C   0  0  0  0  0  0  0  0  0  0  0  0
  -35.8780   57.7610   61.2090 C   0  0  0  0  0  0  0  0  0  0  0  0
  -34.6110   57.4590   62.0020 C   0  0  0  0  0  0  0  0  0  0  0  0
  -34.8704   56.5130   63.1754 C   0  0  1  0  0  0  0  0  0  0  0  0
  -36.2005   56.4086   65.2014 C   0  0  0  0  0  0  0  0  0  0  0  0
  -37.2531   57.0600   66.1134 C   0  0  1  0  0  0  0  0  0  0  0  0
  -37.6829   58.3893   65.5001 C   0  0  0  0  0  0  0  0  0  0  0  0
  -36.7796   57.2311   67.5644 C   0  0  0  0  0  0  0  0  0  0  0  0
  -38.6635   56.0286   67.4649 C   0  0  0  0  0  0  0  0  0  0  0  0
  -39.7456   55.2312   68.0471 C   0  0  0  0  0  0  0  0  0  0  0  0
  -40.6384   54.5505   67.2182 C   0  0  0  0  0  0  0  0  0  0  0  0
  -41.7976   53.9997   67.7368 C   0  0  0  0  0  0  0  0  0  0  0  0
  -42.0854   54.1161   69.0793 C   0  0  0  0  0  0  0  0  0  0  0  0
  -41.2195   54.7896   69.9214 C   0  0  0  0  0  0  0  0  0  0  0  0
  -40.0504   55.3519   69.4185 C   0  0  0  0  0  0  0  0  0  0  0  0
  -33.5727   56.1622   63.8877 C   0  0  0  0  0  0  0  0  0  0  0  0
  -31.2072   56.2933   63.4369 C   0  0  2  0  0  0  0  0  0  0  0  0
  -31.0755   55.3225   62.2907 C   0  0  0  0  0  0  0  0  0  0  0  0
  -31.1112   55.6088   64.7866 C   0  0  0  0  0  0  0  0  0  0  0  0
  -31.3167   56.5588   65.9455 C   0  0  0  0  0  0  0  0  0  0  0  0
  -32.6506   57.1013   67.9130 C   0  0  1  0  0  0  0  0  0  0  0  0
  -33.6309   58.2139   67.5246 C   0  0  0  0  0  0  0  0  0  0  0  0
  -33.6650   59.3718   68.5162 C   0  0  0  0  0  0  0  0  0  0  0  0
  -34.1089   59.0140   69.9207 C   0  0  0  0  0  0  0  0  0  0  0  0
  -33.1757   58.0651   70.6431 C   0  0  0  0  0  0  0  0  0  0  0  0
  -33.2846   56.2116   68.9706 C   0  0  0  0  0  0  0  0  0  0  0  0
  -38.2651   59.7228   63.8769 H   0  0  0  0  0  0  0  0  0  0  0  0
  -39.7790   65.6400   56.4871 H   0  0  0  0  0  0  0  0  0  0  0  0
  -40.9325   65.1710   55.2613 H   0  0  0  0  0  0  0  0  0  0  0  0
  -41.4207   65.2463   56.9373 H   0  0  0  0  0  0  0  0  0  0  0  0
  -40.5681   67.5711   55.2597 H   0  0  0  0  0  0  0  0  0  0  0  0
  -41.0894   67.6165   56.9559 H   0  0  0  0  0  0  0  0  0  0  0  0
  -36.2438   57.9514   63.9098 H   0  0  0  0  0  0  0  0  0  0  0  0
  -42.7799   66.8089   54.6425 H   0  0  0  0  0  0  0  0  0  0  0  0
  -42.8178   68.3660   55.5131 H   0  0  0  0  0  0  0  0  0  0  0  0
  -43.5430   67.2759   57.4951 H   0  0  0  0  0  0  0  0  0  0  0  0
  -43.4857   65.7136   56.6511 H   0  0  0  0  0  0  0  0  0  0  0  0
  -32.9061   55.4969   66.5608 H   0  0  0  0  0  0  0  0  0  0  0  0
  -38.4450   56.4035   69.9778 H   0  0  0  0  0  0  0  0  0  0  0  0
  -45.2948   67.9831   55.9738 H   0  0  0  0  0  0  0  0  0  0  0  0
  -45.7266   66.4971   56.8540 H   0  0  0  0  0  0  0  0  0  0  0  0
  -33.4001   56.0044   70.9382 H   0  0  0  0  0  0  0  0  0  0  0  0
  -44.7863   66.6267   54.0337 H   0  0  0  0  0  0  0  0  0  0  0  0
  -46.4621   66.4005   54.5981 H   0  0  0  0  0  0  0  0  0  0  0  0
  -45.4807   64.3246   53.8780 H   0  0  0  0  0  0  0  0  0  0  0  0
  -45.8670   64.3543   55.6174 H   0  0  0  0  0  0  0  0  0  0  0  0
  -43.5702   64.6715   56.1525 H   0  0  0  0  0  0  0  0  0  0  0  0
  -43.1716   64.6700   54.4229 H   0  0  0  0  0  0  0  0  0  0  0  0
  -42.6302   62.5565   55.4602 H   0  0  0  0  0  0  0  0  0  0  0  0
  -43.9016   62.4127   54.2354 H   0  0  0  0  0  0  0  0  0  0  0  0
  -44.3777   61.0475   56.1651 H   0  0  0  0  0  0  0  0  0  0  0  0
  -45.5587   62.3651   55.9400 H   0  0  0  0  0  0  0  0  0  0  0  0
  -45.0440   62.0189   58.2664 H   0  0  0  0  0  0  0  0  0  0  0  0
  -44.5376   63.6107   57.6691 H   0  0  0  0  0  0  0  0  0  0  0  0
  -42.2723   62.8667   57.5344 H   0  0  0  0  0  0  0  0  0  0  0  0
  -42.7777   61.2652   58.1164 H   0  0  0  0  0  0  0  0  0  0  0  0
  -43.4212   62.2012   60.2149 H   0  0  0  0  0  0  0  0  0  0  0  0
  -42.9374   63.8094   59.6343 H   0  0  0  0  0  0  0  0  0  0  0  0
  -40.6682   63.1009   59.4822 H   0  0  0  0  0  0  0  0  0  0  0  0
  -41.1555   61.4822   60.0515 H   0  0  0  0  0  0  0  0  0  0  0  0
  -41.7698   62.3765   62.1648 H   0  0  0  0  0  0  0  0  0  0  0  0
  -41.3116   63.9999   61.6034 H   0  0  0  0  0  0  0  0  0  0  0  0
  -39.4558   61.6965   61.9394 H   0  0  0  0  0  0  0  0  0  0  0  0
  -39.6466   63.0846   63.0363 H   0  0  0  0  0  0  0  0  0  0  0  0
  -38.8645   64.5723   61.3351 H   0  0  0  0  0  0  0  0  0  0  0  0
  -38.6970   63.2182   60.2175 H   0  0  0  0  0  0  0  0  0  0  0  0
  -36.5038   63.7747   61.2567 H   0  0  0  0  0  0  0  0  0  0  0  0
  -35.8874   62.4234   62.9612 H   0  0  0  0  0  0  0  0  0  0  0  0
  -35.7032   59.6374   63.2524 H   0  0  0  0  0  0  0  0  0  0  0  0
  -36.3399   60.4428   61.8246 H   0  0  0  0  0  0  0  0  0  0  0  0
  -37.8119   58.5833   61.4147 H   0  0  0  0  0  0  0  0  0  0  0  0
  -37.1476   57.7838   62.8677 H   0  0  0  0  0  0  0  0  0  0  0  0
  -35.6238   58.4067   60.3945 H   0  0  0  0  0  0  0  0  0  0  0  0
  -36.2729   56.8255   60.8717 H   0  0  0  0  0  0  0  0  0  0  0  0
  -34.2161   58.3779   62.3821 H   0  0  0  0  0  0  0  0  0  0  0  0
  -33.9192   56.9787   61.3420 H   0  0  0  0  0  0  0  0  0  0  0  0
  -35.2841   55.6083   62.7813 H   0  0  0  0  0  0  0  0  0  0  0  0
  -38.0051   58.2295   64.4923 H   0  0  0  0  0  0  0  0  0  0  0  0
  -36.8566   59.0690   65.5069 H   0  0  0  0  0  0  0  0  0  0  0  0
  -38.4886   58.8015   66.0710 H   0  0  0  0  0  0  0  0  0  0  0  0
  -35.8627   56.7048   67.7296 H   0  0  0  0  0  0  0  0  0  0  0  0
  -36.5841   58.2526   67.8156 H   0  0  0  0  0  0  0  0  0  0  0  0
  -40.4328   54.4571   66.2112 H   0  0  0  0  0  0  0  0  0  0  0  0
  -42.4504   53.4988   67.1140 H   0  0  0  0  0  0  0  0  0  0  0  0
  -42.9503   53.6991   69.4577 H   0  0  0  0  0  0  0  0  0  0  0  0
  -41.4411   54.8754   70.9257 H   0  0  0  0  0  0  0  0  0  0  0  0
  -30.4190   57.0103   63.3389 H   0  0  0  0  0  0  0  0  0  0  0  0
  -31.8502   54.5872   62.3553 H   0  0  0  0  0  0  0  0  0  0  0  0
  -30.1214   54.8406   62.3392 H   0  0  0  0  0  0  0  0  0  0  0  0
  -31.1616   55.8508   61.3641 H   0  0  0  0  0  0  0  0  0  0  0  0
  -30.1414   55.1658   64.8763 H   0  0  0  0  0  0  0  0  0  0  0  0
  -31.8899   54.8762   64.8306 H   0  0  0  0  0  0  0  0  0  0  0  0
  -31.7557   57.5510   68.2895 H   0  0  0  0  0  0  0  0  0  0  0  0
  -34.6126   57.7930   67.4623 H   0  0  0  0  0  0  0  0  0  0  0  0
  -33.2983   58.6122   66.5889 H   0  0  0  0  0  0  0  0  0  0  0  0
  -34.3379   60.1119   68.1361 H   0  0  0  0  0  0  0  0  0  0  0  0
  -32.6548   59.7131   68.6049 H   0  0  0  0  0  0  0  0  0  0  0  0
  -35.0738   58.5554   69.8612 H   0  0  0  0  0  0  0  0  0  0  0  0
  -34.1170   59.9247   70.4823 H   0  0  0  0  0  0  0  0  0  0  0  0
  -32.1696   58.3828   70.4648 H   0  0  0  0  0  0  0  0  0  0  0  0
  -33.4429   58.0989   71.6787 H   0  0  0  0  0  0  0  0  0  0  0  0
  1 33  1  0  0  0  0
  1 34  1  0  0  0  0
  1 61  1  0  0  0  0
  2  4  1  0  0  0  0
  2 62  1  0  0  0  0
  2 63  1  0  0  0  0
  2 64  1  0  0  0  0
  3 33  2  0  0  0  0
  4  7  1  0  0  0  0
  4 65  1  0  0  0  0
  4 66  1  0  0  0  0
  5 38  1  0  0  0  0
  5 39  1  0  0  0  0
  5 67  1  0  0  0  0
  6 39  2  0  0  0  0
  7 10  1  0  0  0  0
  7 68  1  0  0  0  0
  7 69  1  0  0  0  0
  8 40  1  0  0  0  0
  8 43  2  0  0  0  0
  9 42  1  0  0  0  0
  9 43  1  0  0  0  0
 10 13  1  0  0  0  0
 10 70  1  0  0  0  0
 10 71  1  0  0  0  0
 11 54  1  0  0  0  0
 11 55  1  0  0  0  0
 11 72  1  0  0  0  0
 12 49  1  0  0  0  0
 12 73  1  0  0  0  0
 13 16  1  0  0  0  0
 13 74  1  0  0  0  0
 13 75  1  0  0  0  0
 14 59  1  0  0  0  0
 14 60  1  0  0  0  0
 14 76  1  0  0  0  0
 15 50  2  0  0  0  0
 16 18  1  0  0  0  0
 16 77  1  0  0  0  0
 16 78  1  0  0  0  0
 17 50  1  0  0  0  0
 17 51  1  0  0  0  0
 18 20  1  0  0  0  0
 18 79  1  0  0  0  0
 18 80  1  0  0  0  0
 19 54  2  0  0  0  0
 20 22  1  0  0  0  0
 20 81  1  0  0  0  0
 20 82  1  0  0  0  0
 21 60  2  0  0  0  0
 22 23  1  0  0  0  0
 22 83  1  0  0  0  0
 22 84  1  0  0  0  0
 23 24  1  0  0  0  0
 23 85  1  0  0  0  0
 23 86  1  0  0  0  0
 24 25  1  0  0  0  0
 24 87  1  0  0  0  0
 24 88  1  0  0  0  0
 25 26  1  0  0  0  0
 25 89  1  0  0  0  0
 25 90  1  0  0  0  0
 26 27  1  0  0  0  0
 26 91  1  0  0  0  0
 26 92  1  0  0  0  0
 27 28  1  0  0  0  0
 27 93  1  0  0  0  0
 27 94  1  0  0  0  0
 28 29  1  0  0  0  0
 28 95  1  0  0  0  0
 28 96  1  0  0  0  0
 29 30  1  0  0  0  0
 29 97  1  0  0  0  0
 29 98  1  0  0  0  0
 30 31  1  0  0  0  0
 30 99  1  0  0  0  0
 30100  1  0  0  0  0
 31 32  2  0  0  0  0
 31101  1  0  0  0  0
 32 33  1  0  0  0  0
 32102  1  0  0  0  0
 34 35  1  0  0  0  0
 34103  1  0  0  0  0
 34104  1  0  0  0  0
 35 36  1  0  0  0  0
 35105  1  0  0  0  0
 35106  1  0  0  0  0
 36 37  1  0  0  0  0
 36107  1  0  0  0  0
 36108  1  0  0  0  0
 37 38  1  0  0  0  0
 37109  1  0  0  0  0
 37110  1  0  0  0  0
 38 50  1  0  0  0  0
 38111  1  6  0  0  0
 40 39  1  6  0  0  0
 40 41  1  0  0  0  0
 40 42  1  0  0  0  0
 41112  1  0  0  0  0
 41113  1  0  0  0  0
 41114  1  0  0  0  0
 42115  1  0  0  0  0
 42116  1  0  0  0  0
 43 44  1  0  0  0  0
 44 45  2  0  0  0  0
 44 49  1  0  0  0  0
 45 46  1  0  0  0  0
 45117  1  0  0  0  0
 46 47  2  0  0  0  0
 46118  1  0  0  0  0
 47 48  1  0  0  0  0
 47119  1  0  0  0  0
 48 49  2  0  0  0  0
 48120  1  0  0  0  0
 51 52  1  0  0  0  0
 51 53  1  0  0  0  0
 51121  1  6  0  0  0
 52122  1  0  0  0  0
 52123  1  0  0  0  0
 52124  1  0  0  0  0
 53 54  1  0  0  0  0
 53125  1  0  0  0  0
 53126  1  0  0  0  0
 55 56  1  0  0  0  0
 55 60  1  0  0  0  0
 55127  1  1  0  0  0
 56 57  1  0  0  0  0
 56128  1  0  0  0  0
 56129  1  0  0  0  0
 57 58  1  0  0  0  0
 57130  1  0  0  0  0
 57131  1  0  0  0  0
 58 59  1  0  0  0  0
 58132  1  0  0  0  0
 58133  1  0  0  0  0
 59134  1  0  0  0  0
 59135  1  0  0  0  0
M  END
$$$$