/media/chris/experiments/cd1a-new-docking/inputs/ligands/7ryo_ligand.pdb
 OpenBabel07032304133D

135137  0  0  1  0  0  0  0  0999 V2000
  -37.9573   56.3471   62.8329 N   0  0  0  0  0  0  0  0  0  0  0  0
  -36.3679   42.1098   59.8187 C   0  0  0  0  0  0  0  0  0  0  0  0
  -36.0281   55.6460   61.8945 O   0  0  0  0  0  0  0  0  0  0  0  0
  -37.7773   42.2029   59.2958 C   0  0  0  0  0  0  0  0  0  0  0  0
  -32.3413   56.5057   61.9259 N   0  0  0  0  0  0  0  0  0  0  0  0
  -31.2278   55.6366   60.1771 O   0  0  0  0  0  0  0  0  0  0  0  0
  -37.8472   42.5729   57.8253 C   0  0  0  0  0  0  0  0  0  0  0  0
  -30.4552   54.7077   63.3320 N   0  0  0  0  0  0  0  0  0  0  0  0
  -28.6240   53.7841   62.3957 O   0  0  0  0  0  0  0  0  0  0  0  0
  -37.2025   43.9059   57.4807 C   0  0  0  0  0  0  0  0  0  0  0  0
  -31.6313   55.0848   55.5590 N   0  0  0  0  0  0  0  0  0  0  0  0
  -30.8696   53.7860   65.9095 O   0  0  0  0  0  0  0  0  0  0  0  0
  -35.7167   43.9626   57.8078 C   0  0  0  0  0  0  0  0  0  0  0  0
  -34.2962   53.2040   53.9922 N   0  0  0  0  0  0  0  0  0  0  0  0
  -33.6530   58.7464   59.7195 O   0  0  0  0  0  0  0  0  0  0  0  0
  -35.0642   45.2974   57.4830 C   0  0  0  0  0  0  0  0  0  0  0  0
  -32.3357   57.0171   59.1242 O   0  0  0  0  0  0  0  0  0  0  0  0
  -35.6510   46.4780   58.2371 C   0  0  0  0  0  0  0  0  0  0  0  0
  -32.0892   54.6763   57.7235 O   0  0  0  0  0  0  0  0  0  0  0  0
  -35.0089   47.8134   57.8985 C   0  0  0  0  0  0  0  0  0  0  0  0
  -34.2643   55.0660   55.2422 O   0  0  0  0  0  0  0  0  0  0  0  0
  -33.5206   47.8504   58.1840 C   0  0  0  0  0  0  0  0  0  0  0  0
  -32.8948   49.1929   57.8583 C   0  0  0  0  0  0  0  0  0  0  0  0
  -33.4634   50.3556   58.6467 C   0  0  0  0  0  0  0  0  0  0  0  0
  -32.8297   51.6851   58.2866 C   0  0  0  0  0  0  0  0  0  0  0  0
  -33.3808   52.8558   59.0837 C   0  0  0  0  0  0  0  0  0  0  0  0
  -34.8751   53.0538   58.9118 C   0  0  0  0  0  0  0  0  0  0  0  0
  -35.7195   51.8712   59.3565 C   0  0  0  0  0  0  0  0  0  0  0  0
  -35.5589   51.5285   60.8275 C   0  0  0  0  0  0  0  0  0  0  0  0
  -35.9610   52.6567   61.7696 C   0  0  0  0  0  0  0  0  0  0  0  0
  -37.4005   53.0316   61.6025 C   0  0  0  0  0  0  0  0  0  0  0  0
  -37.9565   54.2215   61.7858 C   0  0  0  0  0  0  0  0  0  0  0  0
  -37.2176   55.4397   62.1862 C   0  0  0  0  0  0  0  0  0  0  0  0
  -37.4201   57.6362   63.2386 C   0  0  0  0  0  0  0  0  0  0  0  0
  -36.9560   58.4330   62.0390 C   0  0  0  0  0  0  0  0  0  0  0  0
  -35.8780   57.7610   61.2090 C   0  0  0  0  0  0  0  0  0  0  0  0
  -34.6110   57.4590   62.0020 C   0  0  0  0  0  0  0  0  0  0  0  0
  -33.5311   56.7980   61.1441 C   0  0  1  0  0  0  0  0  0  0  0  0
  -31.2729   55.9388   61.3603 C   0  0  0  0  0  0  0  0  0  0  0  0
  -30.0643   55.6416   62.2631 C   0  0  1  0  0  0  0  0  0  0  0  0
  -29.5863   56.9463   62.8933 C   0  0  0  0  0  0  0  0  0  0  0  0
  -28.9255   54.9120   61.5355 C   0  0  0  0  0  0  0  0  0  0  0  0
  -29.6232   53.7501   63.3155 C   0  0  0  0  0  0  0  0  0  0  0  0
  -29.6240   52.5893   64.2090 C   0  0  0  0  0  0  0  0  0  0  0  0
  -29.1337   51.3614   63.7628 C   0  0  0  0  0  0  0  0  0  0  0  0
  -29.3494   50.2095   64.4996 C   0  0  0  0  0  0  0  0  0  0  0  0
  -30.0513   50.2602   65.6842 C   0  0  0  0  0  0  0  0  0  0  0  0
  -30.5518   51.4638   66.1462 C   0  0  0  0  0  0  0  0  0  0  0  0
  -30.3472   52.6320   65.4187 C   0  0  0  0  0  0  0  0  0  0  0  0
  -33.1974   57.6570   59.9336 C   0  0  0  0  0  0  0  0  0  0  0  0
  -31.9168   57.6891   57.8902 C   0  0  2  0  0  0  0  0  0  0  0  0
  -33.1491   57.9645   57.0662 C   0  0  0  0  0  0  0  0  0  0  0  0
  -30.9672   56.7263   57.2041 C   0  0  0  0  0  0  0  0  0  0  0  0
  -31.6165   55.4053   56.8560 C   0  0  0  0  0  0  0  0  0  0  0  0
  -32.2124   53.8418   55.0825 C   0  0  1  0  0  0  0  0  0  0  0  0
  -32.0876   52.7559   56.1571 C   0  0  0  0  0  0  0  0  0  0  0  0
  -32.2422   51.3391   55.6151 C   0  0  0  0  0  0  0  0  0  0  0  0
  -33.5835   51.0265   54.9819 C   0  0  0  0  0  0  0  0  0  0  0  0
  -33.8818   51.8293   53.7330 C   0  0  0  0  0  0  0  0  0  0  0  0
  -33.6815   54.0900   54.7790 C   0  0  0  0  0  0  0  0  0  0  0  0
  -38.8959   56.1355   63.0411 H   0  0  0  0  0  0  0  0  0  0  0  0
  -36.3888   41.8468   60.8556 H   0  0  0  0  0  0  0  0  0  0  0  0
  -35.8803   43.0548   59.7001 H   0  0  0  0  0  0  0  0  0  0  0  0
  -35.8333   41.3615   59.2717 H   0  0  0  0  0  0  0  0  0  0  0  0
  -38.3003   42.9474   59.8589 H   0  0  0  0  0  0  0  0  0  0  0  0
  -38.2197   41.2343   59.4009 H   0  0  0  0  0  0  0  0  0  0  0  0
  -32.3230   56.7284   62.8847 H   0  0  0  0  0  0  0  0  0  0  0  0
  -38.8775   42.6160   57.5399 H   0  0  0  0  0  0  0  0  0  0  0  0
  -37.2981   41.8227   57.2957 H   0  0  0  0  0  0  0  0  0  0  0  0
  -37.7006   44.6759   58.0319 H   0  0  0  0  0  0  0  0  0  0  0  0
  -37.2980   44.0383   56.4232 H   0  0  0  0  0  0  0  0  0  0  0  0
  -31.2371   55.7089   54.9076 H   0  0  0  0  0  0  0  0  0  0  0  0
  -30.7496   54.5900   65.4435 H   0  0  0  0  0  0  0  0  0  0  0  0
  -35.2190   43.1991   57.2472 H   0  0  0  0  0  0  0  0  0  0  0  0
  -35.6259   43.8218   58.8646 H   0  0  0  0  0  0  0  0  0  0  0  0
  -35.1150   53.5102   53.5394 H   0  0  0  0  0  0  0  0  0  0  0  0
  -35.1768   45.4796   56.4346 H   0  0  0  0  0  0  0  0  0  0  0  0
  -34.0400   45.2198   57.7830 H   0  0  0  0  0  0  0  0  0  0  0  0
  -35.5272   46.3020   59.2852 H   0  0  0  0  0  0  0  0  0  0  0  0
  -36.6787   46.5482   57.9477 H   0  0  0  0  0  0  0  0  0  0  0  0
  -35.4853   48.5764   58.4781 H   0  0  0  0  0  0  0  0  0  0  0  0
  -35.1349   47.9693   56.8475 H   0  0  0  0  0  0  0  0  0  0  0  0
  -33.0404   47.0971   57.5951 H   0  0  0  0  0  0  0  0  0  0  0  0
  -33.3883   47.6781   59.2317 H   0  0  0  0  0  0  0  0  0  0  0  0
  -33.0454   49.3888   56.8172 H   0  0  0  0  0  0  0  0  0  0  0  0
  -31.8606   49.1205   58.1234 H   0  0  0  0  0  0  0  0  0  0  0  0
  -33.3016   50.1723   59.6884 H   0  0  0  0  0  0  0  0  0  0  0  0
  -34.5044   50.4236   58.4088 H   0  0  0  0  0  0  0  0  0  0  0  0
  -33.0023   51.8720   57.2473 H   0  0  0  0  0  0  0  0  0  0  0  0
  -31.7878   51.6098   58.5182 H   0  0  0  0  0  0  0  0  0  0  0  0
  -32.8821   53.7473   58.7652 H   0  0  0  0  0  0  0  0  0  0  0  0
  -33.2081   52.6422   60.1178 H   0  0  0  0  0  0  0  0  0  0  0  0
  -35.0719   53.2348   57.8757 H   0  0  0  0  0  0  0  0  0  0  0  0
  -35.1485   53.8772   59.5380 H   0  0  0  0  0  0  0  0  0  0  0  0
  -35.4370   51.0170   58.7774 H   0  0  0  0  0  0  0  0  0  0  0  0
  -36.7436   52.1431   59.2076 H   0  0  0  0  0  0  0  0  0  0  0  0
  -34.5318   51.2886   61.0077 H   0  0  0  0  0  0  0  0  0  0  0  0
  -36.2132   50.7063   61.0290 H   0  0  0  0  0  0  0  0  0  0  0  0
  -35.3536   53.5132   61.5640 H   0  0  0  0  0  0  0  0  0  0  0  0
  -35.8192   52.3181   62.7747 H   0  0  0  0  0  0  0  0  0  0  0  0
  -38.0363   52.2733   61.3096 H   0  0  0  0  0  0  0  0  0  0  0  0
  -38.9747   54.3037   61.6392 H   0  0  0  0  0  0  0  0  0  0  0  0
  -36.5906   57.4783   63.8958 H   0  0  0  0  0  0  0  0  0  0  0  0
  -38.1924   58.1861   63.7346 H   0  0  0  0  0  0  0  0  0  0  0  0
  -36.5724   59.3687   62.3887 H   0  0  0  0  0  0  0  0  0  0  0  0
  -37.8072   58.5391   61.3994 H   0  0  0  0  0  0  0  0  0  0  0  0
  -35.6238   58.4067   60.3945 H   0  0  0  0  0  0  0  0  0  0  0  0
  -36.2729   56.8255   60.8717 H   0  0  0  0  0  0  0  0  0  0  0  0
  -34.8590   56.8018   62.8091 H   0  0  0  0  0  0  0  0  0  0  0  0
  -34.2203   58.3886   62.3599 H   0  0  0  0  0  0  0  0  0  0  0  0
  -33.9197   55.8664   60.7890 H   0  0  0  0  0  0  0  0  0  0  0  0
  -30.4053   57.4239   63.3892 H   0  0  0  0  0  0  0  0  0  0  0  0
  -29.2055   57.5925   62.1302 H   0  0  0  0  0  0  0  0  0  0  0  0
  -28.8127   56.7374   63.6024 H   0  0  0  0  0  0  0  0  0  0  0  0
  -29.2433   54.5791   60.5695 H   0  0  0  0  0  0  0  0  0  0  0  0
  -28.0756   55.5400   61.3675 H   0  0  0  0  0  0  0  0  0  0  0  0
  -28.6064   51.3117   62.8771 H   0  0  0  0  0  0  0  0  0  0  0  0
  -28.9821   49.3071   64.1595 H   0  0  0  0  0  0  0  0  0  0  0  0
  -30.2042   49.3969   66.2286 H   0  0  0  0  0  0  0  0  0  0  0  0
  -31.0785   51.4956   67.0331 H   0  0  0  0  0  0  0  0  0  0  0  0
  -31.4262   58.6261   58.0522 H   0  0  0  0  0  0  0  0  0  0  0  0
  -33.6682   57.0469   56.8831 H   0  0  0  0  0  0  0  0  0  0  0  0
  -32.8636   58.4049   56.1337 H   0  0  0  0  0  0  0  0  0  0  0  0
  -33.7901   58.6371   57.5969 H   0  0  0  0  0  0  0  0  0  0  0  0
  -30.1407   56.5387   57.8572 H   0  0  0  0  0  0  0  0  0  0  0  0
  -30.6557   57.1819   56.2874 H   0  0  0  0  0  0  0  0  0  0  0  0
  -31.6989   53.5126   54.2034 H   0  0  0  0  0  0  0  0  0  0  0  0
  -32.8457   52.9207   56.8940 H   0  0  0  0  0  0  0  0  0  0  0  0
  -31.1008   52.8299   56.5644 H   0  0  0  0  0  0  0  0  0  0  0  0
  -32.0936   50.6575   56.4264 H   0  0  0  0  0  0  0  0  0  0  0  0
  -31.5181   51.2425   54.8332 H   0  0  0  0  0  0  0  0  0  0  0  0
  -34.3495   51.2280   55.7014 H   0  0  0  0  0  0  0  0  0  0  0  0
  -33.5525   49.9985   54.6869 H   0  0  0  0  0  0  0  0  0  0  0  0
  -32.9983   51.8530   53.1300 H   0  0  0  0  0  0  0  0  0  0  0  0
  -34.7029   51.3467   53.2453 H   0  0  0  0  0  0  0  0  0  0  0  0
  1 33  1  0  0  0  0
  1 34  1  0  0  0  0
  1 61  1  0  0  0  0
  2  4  1  0  0  0  0
  2 62  1  0  0  0  0
  2 63  1  0  0  0  0
  2 64  1  0  0  0  0
  3 33  2  0  0  0  0
  4  7  1  0  0  0  0
  4 65  1  0  0  0  0
  4 66  1  0  0  0  0
  5 38  1  0  0  0  0
  5 39  1  0  0  0  0
  5 67  1  0  0  0  0
  6 39  2  0  0  0  0
  7 10  1  0  0  0  0
  7 68  1  0  0  0  0
  7 69  1  0  0  0  0
  8 40  1  0  0  0  0
  8 43  2  0  0  0  0
  9 42  1  0  0  0  0
  9 43  1  0  0  0  0
 10 13  1  0  0  0  0
 10 70  1  0  0  0  0
 10 71  1  0  0  0  0
 11 54  1  0  0  0  0
 11 55  1  0  0  0  0
 11 72  1  0  0  0  0
 12 49  1  0  0  0  0
 12 73  1  0  0  0  0
 13 16  1  0  0  0  0
 13 74  1  0  0  0  0
 13 75  1  0  0  0  0
 14 59  1  0  0  0  0
 14 60  1  0  0  0  0
 14 76  1  0  0  0  0
 15 50  2  0  0  0  0
 16 18  1  0  0  0  0
 16 77  1  0  0  0  0
 16 78  1  0  0  0  0
 17 50  1  0  0  0  0
 17 51  1  0  0  0  0
 18 20  1  0  0  0  0
 18 79  1  0  0  0  0
 18 80  1  0  0  0  0
 19 54  2  0  0  0  0
 20 22  1  0  0  0  0
 20 81  1  0  0  0  0
 20 82  1  0  0  0  0
 21 60  2  0  0  0  0
 22 23  1  0  0  0  0
 22 83  1  0  0  0  0
 22 84  1  0  0  0  0
 23 24  1  0  0  0  0
 23 85  1  0  0  0  0
 23 86  1  0  0  0  0
 24 25  1  0  0  0  0
 24 87  1  0  0  0  0
 24 88  1  0  0  0  0
 25 26  1  0  0  0  0
 25 89  1  0  0  0  0
 25 90  1  0  0  0  0
 26 27  1  0  0  0  0
 26 91  1  0  0  0  0
 26 92  1  0  0  0  0
 27 28  1  0  0  0  0
 27 93  1  0  0  0  0
 27 94  1  0  0  0  0
 28 29  1  0  0  0  0
 28 95  1  0  0  0  0
 28 96  1  0  0  0  0
 29 30  1  0  0  0  0
 29 97  1  0  0  0  0
 29 98  1  0  0  0  0
 30 31  1  0  0  0  0
 30 99  1  0  0  0  0
 30100  1  0  0  0  0
 31 32  2  0  0  0  0
 31101  1  0  0  0  0
 32 33  1  0  0  0  0
 32102  1  0  0  0  0
 34 35  1  0  0  0  0
 34103  1  0  0  0  0
 34104  1  0  0  0  0
 35 36  1  0  0  0  0
 35105  1  0  0  0  0
 35106  1  0  0  0  0
 36 37  1  0  0  0  0
 36107  1  0  0  0  0
 36108  1  0  0  0  0
 37 38  1  0  0  0  0
 37109  1  0  0  0  0
 37110  1  0  0  0  0
 38 50  1  0  0  0  0
 38111  1  6  0  0  0
 40 39  1  6  0  0  0
 40 41  1  0  0  0  0
 40 42  1  0  0  0  0
 41112  1  0  0  0  0
 41113  1  0  0  0  0
 41114  1  0  0  0  0
 42115  1  0  0  0  0
 42116  1  0  0  0  0
 43 44  1  0  0  0  0
 44 45  2  0  0  0  0
 44 49  1  0  0  0  0
 45 46  1  0  0  0  0
 45117  1  0  0  0  0
 46 47  2  0  0  0  0
 46118  1  0  0  0  0
 47 48  1  0  0  0  0
 47119  1  0  0  0  0
 48 49  2  0  0  0  0
 48120  1  0  0  0  0
 51 52  1  0  0  0  0
 51 53  1  0  0  0  0
 51121  1  1  0  0  0
 52122  1  0  0  0  0
 52123  1  0  0  0  0
 52124  1  0  0  0  0
 53 54  1  0  0  0  0
 53125  1  0  0  0  0
 53126  1  0  0  0  0
 55 56  1  0  0  0  0
 55 60  1  0  0  0  0
 55127  1  6  0  0  0
 56 57  1  0  0  0  0
 56128  1  0  0  0  0
 56129  1  0  0  0  0
 57 58  1  0  0  0  0
 57130  1  0  0  0  0
 57131  1  0  0  0  0
 58 59  1  0  0  0  0
 58132  1  0  0  0  0
 58133  1  0  0  0  0
 59134  1  0  0  0  0
 59135  1  0  0  0  0
M  END
$$$$