/media/chris/experiments/cd1a-new-docking/inputs/ligands/7ryo_ligand.pdb
 OpenBabel07032304133D

135137  0  0  1  0  0  0  0  0999 V2000
  -37.6438   60.3330   63.4177 N   0  0  0  0  0  0  0  0  0  0  0  0
  -38.6868   58.8865   57.8117 C   0  0  0  0  0  0  0  0  0  0  0  0
  -38.7405   62.1314   64.2281 O   0  0  0  0  0  0  0  0  0  0  0  0
  -37.2230   58.5353   57.8602 C   0  0  0  0  0  0  0  0  0  0  0  0
  -34.0017   55.5459   60.5756 N   0  0  0  0  0  0  0  0  0  0  0  0
  -32.0565   55.1196   59.5323 O   0  0  0  0  0  0  0  0  0  0  0  0
  -36.3794   59.3499   56.8965 C   0  0  0  0  0  0  0  0  0  0  0  0
  -33.7514   53.5520   57.7521 N   0  0  0  0  0  0  0  0  0  0  0  0
  -32.7606   51.6004   58.2935 O   0  0  0  0  0  0  0  0  0  0  0  0
  -36.4126   60.8495   57.1442 C   0  0  0  0  0  0  0  0  0  0  0  0
  -30.3095   54.2863   62.7468 N   0  0  0  0  0  0  0  0  0  0  0  0
  -32.1343   49.9152   56.6099 O   0  0  0  0  0  0  0  0  0  0  0  0
  -35.5728   61.6455   56.1547 C   0  0  0  0  0  0  0  0  0  0  0  0
  -29.4416   50.8875   61.8589 N   0  0  0  0  0  0  0  0  0  0  0  0
  -31.2210   56.1784   61.4905 O   0  0  0  0  0  0  0  0  0  0  0  0
  -36.0134   61.4908   54.7073 C   0  0  0  0  0  0  0  0  0  0  0  0
  -32.4428   56.9252   63.2313 O   0  0  0  0  0  0  0  0  0  0  0  0
  -37.4349   61.9517   54.4358 C   0  0  0  0  0  0  0  0  0  0  0  0
  -30.5246   54.6503   64.9566 O   0  0  0  0  0  0  0  0  0  0  0  0
  -38.4917   61.2191   55.2461 C   0  0  0  0  0  0  0  0  0  0  0  0
  -29.3441   52.8340   60.7488 O   0  0  0  0  0  0  0  0  0  0  0  0
  -39.9032   61.6837   54.9463 C   0  0  0  0  0  0  0  0  0  0  0  0
  -40.1045   63.1615   55.2217 C   0  0  0  0  0  0  0  0  0  0  0  0
  -39.8346   63.5729   56.6551 C   0  0  0  0  0  0  0  0  0  0  0  0
  -40.7157   62.8524   57.6568 C   0  0  0  0  0  0  0  0  0  0  0  0
  -40.4651   63.2700   59.0964 C   0  0  0  0  0  0  0  0  0  0  0  0
  -41.3357   62.5359   60.0987 C   0  0  0  0  0  0  0  0  0  0  0  0
  -41.1137   62.9501   61.5439 C   0  0  0  0  0  0  0  0  0  0  0  0
  -39.6889   62.7372   62.0252 C   0  0  0  0  0  0  0  0  0  0  0  0
  -38.6496   63.5284   61.2404 C   0  0  0  0  0  0  0  0  0  0  0  0
  -37.2629   63.2714   61.7419 C   0  0  0  0  0  0  0  0  0  0  0  0
  -36.8930   62.4743   62.7351 C   0  0  0  0  0  0  0  0  0  0  0  0
  -37.8229   61.6526   63.5417 C   0  0  0  0  0  0  0  0  0  0  0  0
  -36.5610   59.7701   62.6268 C   0  0  0  0  0  0  0  0  0  0  0  0
  -36.9560   58.4330   62.0390 C   0  0  0  0  0  0  0  0  0  0  0  0
  -35.8780   57.7610   61.2090 C   0  0  0  0  0  0  0  0  0  0  0  0
  -34.6110   57.4590   62.0020 C   0  0  0  0  0  0  0  0  0  0  0  0
  -33.5311   56.7980   61.1441 C   0  0  1  0  0  0  0  0  0  0  0  0
  -33.2051   54.8025   59.8038 C   0  0  0  0  0  0  0  0  0  0  0  0
  -33.7882   53.5037   59.2231 C   0  0  1  0  0  0  0  0  0  0  0  0
  -35.2374   53.3659   59.6798 C   0  0  0  0  0  0  0  0  0  0  0  0
  -32.9624   52.2565   59.5710 C   0  0  0  0  0  0  0  0  0  0  0  0
  -33.1802   52.4904   57.3567 C   0  0  0  0  0  0  0  0  0  0  0  0
  -32.9264   52.1131   55.9643 C   0  0  0  0  0  0  0  0  0  0  0  0
  -33.3249   52.9562   54.9262 C   0  0  0  0  0  0  0  0  0  0  0  0
  -33.3145   52.5099   53.6158 C   0  0  0  0  0  0  0  0  0  0  0  0
  -32.9100   51.2266   53.3190 C   0  0  0  0  0  0  0  0  0  0  0  0
  -32.5144   50.3697   54.3299 C   0  0  0  0  0  0  0  0  0  0  0  0
  -32.5201   50.7992   55.6533 C   0  0  0  0  0  0  0  0  0  0  0  0
  -32.2521   56.5942   61.9423 C   0  0  0  0  0  0  0  0  0  0  0  0
  -31.2916   57.4119   63.9978 C   0  0  2  0  0  0  0  0  0  0  0  0
  -31.0906   58.8689   63.6653 C   0  0  0  0  0  0  0  0  0  0  0  0
  -30.1197   56.5538   63.5623 C   0  0  0  0  0  0  0  0  0  0  0  0
  -30.3398   55.0799   63.8213 C   0  0  0  0  0  0  0  0  0  0  0  0
  -30.4946   52.8493   62.8490 C   0  0  1  0  0  0  0  0  0  0  0  0
  -31.9803   52.4985   62.7109 C   0  0  0  0  0  0  0  0  0  0  0  0
  -32.3333   51.1140   63.2436 C   0  0  0  0  0  0  0  0  0  0  0  0
  -31.6521   49.9539   62.5451 C   0  0  0  0  0  0  0  0  0  0  0  0
  -30.1465   49.9311   62.7056 C   0  0  0  0  0  0  0  0  0  0  0  0
  -29.7097   52.1885   61.7267 C   0  0  0  0  0  0  0  0  0  0  0  0
  -38.2651   59.7228   63.8769 H   0  0  0  0  0  0  0  0  0  0  0  0
  -39.2226   58.2795   58.5112 H   0  0  0  0  0  0  0  0  0  0  0  0
  -39.0632   58.7111   56.8256 H   0  0  0  0  0  0  0  0  0  0  0  0
  -38.8145   59.9185   58.0639 H   0  0  0  0  0  0  0  0  0  0  0  0
  -37.1137   57.4993   57.6156 H   0  0  0  0  0  0  0  0  0  0  0  0
  -36.8765   58.7539   58.8487 H   0  0  0  0  0  0  0  0  0  0  0  0
  -34.9194   55.2420   60.7619 H   0  0  0  0  0  0  0  0  0  0  0  0
  -36.7348   59.1669   55.9040 H   0  0  0  0  0  0  0  0  0  0  0  0
  -35.3657   59.0394   57.0412 H   0  0  0  0  0  0  0  0  0  0  0  0
  -36.0439   61.0384   58.1307 H   0  0  0  0  0  0  0  0  0  0  0  0
  -37.4274   61.1667   57.0235 H   0  0  0  0  0  0  0  0  0  0  0  0
  -30.1573   54.6871   61.8606 H   0  0  0  0  0  0  0  0  0  0  0  0
  -32.1270   50.1732   57.5106 H   0  0  0  0  0  0  0  0  0  0  0  0
  -34.5574   61.3177   56.2345 H   0  0  0  0  0  0  0  0  0  0  0  0
  -35.6923   62.6785   56.4068 H   0  0  0  0  0  0  0  0  0  0  0  0
  -28.6894   50.5366   61.3294 H   0  0  0  0  0  0  0  0  0  0  0  0
  -35.9399   60.4566   54.4430 H   0  0  0  0  0  0  0  0  0  0  0  0
  -35.3711   62.1153   54.1222 H   0  0  0  0  0  0  0  0  0  0  0  0
  -37.6441   61.8013   53.3972 H   0  0  0  0  0  0  0  0  0  0  0  0
  -37.4851   62.9812   54.7233 H   0  0  0  0  0  0  0  0  0  0  0  0
  -38.2946   61.3792   56.2856 H   0  0  0  0  0  0  0  0  0  0  0  0
  -38.4347   60.1841   54.9808 H   0  0  0  0  0  0  0  0  0  0  0  0
  -40.5836   61.1263   55.5556 H   0  0  0  0  0  0  0  0  0  0  0  0
  -40.0818   61.5222   53.9038 H   0  0  0  0  0  0  0  0  0  0  0  0
  -41.1182   63.4107   54.9871 H   0  0  0  0  0  0  0  0  0  0  0  0
  -39.3955   63.6849   54.6148 H   0  0  0  0  0  0  0  0  0  0  0  0
  -40.0064   64.6251   56.7455 H   0  0  0  0  0  0  0  0  0  0  0  0
  -38.8208   63.3119   56.8764 H   0  0  0  0  0  0  0  0  0  0  0  0
  -40.5343   61.8013   57.5727 H   0  0  0  0  0  0  0  0  0  0  0  0
  -41.7286   63.1095   57.4266 H   0  0  0  0  0  0  0  0  0  0  0  0
  -40.6586   64.3188   59.1835 H   0  0  0  0  0  0  0  0  0  0  0  0
  -39.4485   63.0252   59.3231 H   0  0  0  0  0  0  0  0  0  0  0  0
  -41.1320   61.4888   60.0155 H   0  0  0  0  0  0  0  0  0  0  0  0
  -42.3495   62.7833   59.8621 H   0  0  0  0  0  0  0  0  0  0  0  0
  -41.7698   62.3765   62.1648 H   0  0  0  0  0  0  0  0  0  0  0  0
  -41.3116   63.9999   61.6034 H   0  0  0  0  0  0  0  0  0  0  0  0
  -39.4558   61.6965   61.9394 H   0  0  0  0  0  0  0  0  0  0  0  0
  -39.6466   63.0846   63.0363 H   0  0  0  0  0  0  0  0  0  0  0  0
  -38.8645   64.5723   61.3351 H   0  0  0  0  0  0  0  0  0  0  0  0
  -38.6970   63.2182   60.2175 H   0  0  0  0  0  0  0  0  0  0  0  0
  -36.5038   63.7747   61.2567 H   0  0  0  0  0  0  0  0  0  0  0  0
  -35.8874   62.4234   62.9612 H   0  0  0  0  0  0  0  0  0  0  0  0
  -35.7032   59.6374   63.2524 H   0  0  0  0  0  0  0  0  0  0  0  0
  -36.3399   60.4428   61.8246 H   0  0  0  0  0  0  0  0  0  0  0  0
  -37.8119   58.5833   61.4147 H   0  0  0  0  0  0  0  0  0  0  0  0
  -37.1476   57.7838   62.8677 H   0  0  0  0  0  0  0  0  0  0  0  0
  -35.6238   58.4067   60.3945 H   0  0  0  0  0  0  0  0  0  0  0  0
  -36.2729   56.8255   60.8717 H   0  0  0  0  0  0  0  0  0  0  0  0
  -34.8590   56.8018   62.8091 H   0  0  0  0  0  0  0  0  0  0  0  0
  -34.2203   58.3886   62.3599 H   0  0  0  0  0  0  0  0  0  0  0  0
  -33.3097   57.4574   60.3310 H   0  0  0  0  0  0  0  0  0  0  0  0
  -35.7789   54.2516   59.4205 H   0  0  0  0  0  0  0  0  0  0  0  0
  -35.2656   53.2283   60.7405 H   0  0  0  0  0  0  0  0  0  0  0  0
  -35.6842   52.5211   59.1985 H   0  0  0  0  0  0  0  0  0  0  0  0
  -32.0257   52.5308   60.0095 H   0  0  0  0  0  0  0  0  0  0  0  0
  -33.4501   51.6260   60.2847 H   0  0  0  0  0  0  0  0  0  0  0  0
  -33.6297   53.9194   55.1368 H   0  0  0  0  0  0  0  0  0  0  0  0
  -33.6117   53.1424   52.8564 H   0  0  0  0  0  0  0  0  0  0  0  0
  -32.9021   50.9038   52.3388 H   0  0  0  0  0  0  0  0  0  0  0  0
  -32.2143   49.4090   54.1020 H   0  0  0  0  0  0  0  0  0  0  0  0
  -31.4161   57.3417   65.0582 H   0  0  0  0  0  0  0  0  0  0  0  0
  -30.9620   58.9791   62.6088 H   0  0  0  0  0  0  0  0  0  0  0  0
  -30.2205   59.2332   64.1704 H   0  0  0  0  0  0  0  0  0  0  0  0
  -31.9465   59.4281   63.9807 H   0  0  0  0  0  0  0  0  0  0  0  0
  -29.2487   56.8681   64.0984 H   0  0  0  0  0  0  0  0  0  0  0  0
  -30.0050   56.6800   62.5060 H   0  0  0  0  0  0  0  0  0  0  0  0
  -30.1494   52.5040   63.8011 H   0  0  0  0  0  0  0  0  0  0  0  0
  -32.2423   52.5388   61.6742 H   0  0  0  0  0  0  0  0  0  0  0  0
  -32.5259   53.2083   63.2968 H   0  0  0  0  0  0  0  0  0  0  0  0
  -33.3907   50.9828   63.1461 H   0  0  0  0  0  0  0  0  0  0  0  0
  -31.9880   51.0915   64.2561 H   0  0  0  0  0  0  0  0  0  0  0  0
  -31.8775   50.0118   61.5007 H   0  0  0  0  0  0  0  0  0  0  0  0
  -32.0238   49.0596   63.0000 H   0  0  0  0  0  0  0  0  0  0  0  0
  -29.9142   50.1515   63.7266 H   0  0  0  0  0  0  0  0  0  0  0  0
  -29.8196   48.9566   62.4080 H   0  0  0  0  0  0  0  0  0  0  0  0
  1 33  1  0  0  0  0
  1 34  1  0  0  0  0
  1 61  1  0  0  0  0
  2  4  1  0  0  0  0
  2 62  1  0  0  0  0
  2 63  1  0  0  0  0
  2 64  1  0  0  0  0
  3 33  2  0  0  0  0
  4  7  1  0  0  0  0
  4 65  1  0  0  0  0
  4 66  1  0  0  0  0
  5 38  1  0  0  0  0
  5 39  1  0  0  0  0
  5 67  1  0  0  0  0
  6 39  2  0  0  0  0
  7 10  1  0  0  0  0
  7 68  1  0  0  0  0
  7 69  1  0  0  0  0
  8 40  1  0  0  0  0
  8 43  2  0  0  0  0
  9 42  1  0  0  0  0
  9 43  1  0  0  0  0
 10 13  1  0  0  0  0
 10 70  1  0  0  0  0
 10 71  1  0  0  0  0
 11 54  1  0  0  0  0
 11 55  1  0  0  0  0
 11 72  1  0  0  0  0
 12 49  1  0  0  0  0
 12 73  1  0  0  0  0
 13 16  1  0  0  0  0
 13 74  1  0  0  0  0
 13 75  1  0  0  0  0
 14 59  1  0  0  0  0
 14 60  1  0  0  0  0
 14 76  1  0  0  0  0
 15 50  2  0  0  0  0
 16 18  1  0  0  0  0
 16 77  1  0  0  0  0
 16 78  1  0  0  0  0
 17 50  1  0  0  0  0
 17 51  1  0  0  0  0
 18 20  1  0  0  0  0
 18 79  1  0  0  0  0
 18 80  1  0  0  0  0
 19 54  2  0  0  0  0
 20 22  1  0  0  0  0
 20 81  1  0  0  0  0
 20 82  1  0  0  0  0
 21 60  2  0  0  0  0
 22 23  1  0  0  0  0
 22 83  1  0  0  0  0
 22 84  1  0  0  0  0
 23 24  1  0  0  0  0
 23 85  1  0  0  0  0
 23 86  1  0  0  0  0
 24 25  1  0  0  0  0
 24 87  1  0  0  0  0
 24 88  1  0  0  0  0
 25 26  1  0  0  0  0
 25 89  1  0  0  0  0
 25 90  1  0  0  0  0
 26 27  1  0  0  0  0
 26 91  1  0  0  0  0
 26 92  1  0  0  0  0
 27 28  1  0  0  0  0
 27 93  1  0  0  0  0
 27 94  1  0  0  0  0
 28 29  1  0  0  0  0
 28 95  1  0  0  0  0
 28 96  1  0  0  0  0
 29 30  1  0  0  0  0
 29 97  1  0  0  0  0
 29 98  1  0  0  0  0
 30 31  1  0  0  0  0
 30 99  1  0  0  0  0
 30100  1  0  0  0  0
 31 32  2  0  0  0  0
 31101  1  0  0  0  0
 32 33  1  0  0  0  0
 32102  1  0  0  0  0
 34 35  1  0  0  0  0
 34103  1  0  0  0  0
 34104  1  0  0  0  0
 35 36  1  0  0  0  0
 35105  1  0  0  0  0
 35106  1  0  0  0  0
 36 37  1  0  0  0  0
 36107  1  0  0  0  0
 36108  1  0  0  0  0
 37 38  1  0  0  0  0
 37109  1  0  0  0  0
 37110  1  0  0  0  0
 38 50  1  0  0  0  0
 38111  1  6  0  0  0
 40 39  1  1  0  0  0
 40 41  1  0  0  0  0
 40 42  1  0  0  0  0
 41112  1  0  0  0  0
 41113  1  0  0  0  0
 41114  1  0  0  0  0
 42115  1  0  0  0  0
 42116  1  0  0  0  0
 43 44  1  0  0  0  0
 44 45  2  0  0  0  0
 44 49  1  0  0  0  0
 45 46  1  0  0  0  0
 45117  1  0  0  0  0
 46 47  2  0  0  0  0
 46118  1  0  0  0  0
 47 48  1  0  0  0  0
 47119  1  0  0  0  0
 48 49  2  0  0  0  0
 48120  1  0  0  0  0
 51 52  1  0  0  0  0
 51 53  1  0  0  0  0
 51121  1  1  0  0  0
 52122  1  0  0  0  0
 52123  1  0  0  0  0
 52124  1  0  0  0  0
 53 54  1  0  0  0  0
 53125  1  0  0  0  0
 53126  1  0  0  0  0
 55 56  1  0  0  0  0
 55 60  1  0  0  0  0
 55127  1  1  0  0  0
 56 57  1  0  0  0  0
 56128  1  0  0  0  0
 56129  1  0  0  0  0
 57 58  1  0  0  0  0
 57130  1  0  0  0  0
 57131  1  0  0  0  0
 58 59  1  0  0  0  0
 58132  1  0  0  0  0
 58133  1  0  0  0  0
 59134  1  0  0  0  0
 59135  1  0  0  0  0
M  END
$$$$