/media/chris/experiments/cd1a-new-docking/inputs/ligands/7ryo_ligand.pdb
 OpenBabel07032304133D

135137  0  0  1  0  0  0  0  0999 V2000
  -38.8442   57.5132   60.7850 N   0  0  0  0  0  0  0  0  0  0  0  0
  -38.7917   60.1057   65.2527 C   0  0  0  0  0  0  0  0  0  0  0  0
  -40.5035   56.4794   59.6572 O   0  0  0  0  0  0  0  0  0  0  0  0
  -39.6269   60.4572   64.0497 C   0  0  0  0  0  0  0  0  0  0  0  0
  -33.1324   57.6580   60.0424 N   0  0  0  0  0  0  0  0  0  0  0  0
  -30.9871   57.7601   60.7067 O   0  0  0  0  0  0  0  0  0  0  0  0
  -40.9995   59.8091   64.0636 C   0  0  0  0  0  0  0  0  0  0  0  0
  -32.4345   58.7123   57.6086 N   0  0  0  0  0  0  0  0  0  0  0  0
  -32.5874   60.9396   57.9228 O   0  0  0  0  0  0  0  0  0  0  0  0
  -41.8677   60.1998   65.2488 C   0  0  0  0  0  0  0  0  0  0  0  0
  -37.6298   57.4051   57.4668 N   0  0  0  0  0  0  0  0  0  0  0  0
  -34.1494   57.6203   55.8289 O   0  0  0  0  0  0  0  0  0  0  0  0
  -41.2480   59.8502   66.5949 C   0  0  0  0  0  0  0  0  0  0  0  0
  -38.0804   60.9411   58.0888 N   0  0  0  0  0  0  0  0  0  0  0  0
  -33.3116   54.6686   60.0224 O   0  0  0  0  0  0  0  0  0  0  0  0
  -40.9591   58.3678   66.7744 C   0  0  0  0  0  0  0  0  0  0  0  0
  -35.2791   55.2259   60.9704 O   0  0  0  0  0  0  0  0  0  0  0  0
  -42.1833   57.4760   66.6610 C   0  0  0  0  0  0  0  0  0  0  0  0
  -37.4424   55.1680   57.3179 O   0  0  0  0  0  0  0  0  0  0  0  0
  -43.2748   57.7865   67.6721 C   0  0  0  0  0  0  0  0  0  0  0  0
  -38.4718   59.6364   56.3068 O   0  0  0  0  0  0  0  0  0  0  0  0
  -44.4788   56.8734   67.5511 C   0  0  0  0  0  0  0  0  0  0  0  0
  -45.1324   56.9437   66.1843 C   0  0  0  0  0  0  0  0  0  0  0  0
  -44.2287   56.5375   65.0375 C   0  0  0  0  0  0  0  0  0  0  0  0
  -44.9051   56.6346   63.6840 C   0  0  0  0  0  0  0  0  0  0  0  0
  -44.0130   56.2133   62.5281 C   0  0  0  0  0  0  0  0  0  0  0  0
  -42.7442   57.0371   62.4126 C   0  0  0  0  0  0  0  0  0  0  0  0
  -41.8448   56.6438   61.2526 C   0  0  0  0  0  0  0  0  0  0  0  0
  -42.5062   56.7914   59.8933 C   0  0  0  0  0  0  0  0  0  0  0  0
  -42.9389   58.2165   59.5709 C   0  0  0  0  0  0  0  0  0  0  0  0
  -41.7754   59.1581   59.5524 C   0  0  0  0  0  0  0  0  0  0  0  0
  -40.4989   58.8764   59.7760 C   0  0  0  0  0  0  0  0  0  0  0  0
  -39.9788   57.5239   60.0769 C   0  0  0  0  0  0  0  0  0  0  0  0
  -38.2360   58.7337   61.2903 C   0  0  0  0  0  0  0  0  0  0  0  0
  -36.9560   58.4330   62.0390 C   0  0  0  0  0  0  0  0  0  0  0  0
  -35.8780   57.7610   61.2090 C   0  0  0  0  0  0  0  0  0  0  0  0
  -34.6110   57.4590   62.0020 C   0  0  0  0  0  0  0  0  0  0  0  0
  -33.5311   56.7980   61.1441 C   0  0  1  0  0  0  0  0  0  0  0  0
  -31.8686   58.0712   59.9196 C   0  0  0  0  0  0  0  0  0  0  0  0
  -31.5354   58.9980   58.7389 C   0  0  1  0  0  0  0  0  0  0  0  0
  -30.0949   58.7453   58.3042 C   0  0  0  0  0  0  0  0  0  0  0  0
  -31.7849   60.4830   59.0411 C   0  0  0  0  0  0  0  0  0  0  0  0
  -32.9475   59.8157   57.2499 C   0  0  0  0  0  0  0  0  0  0  0  0
  -33.9039   60.0093   56.1574 C   0  0  0  0  0  0  0  0  0  0  0  0
  -34.3789   61.2873   55.8602 C   0  0  0  0  0  0  0  0  0  0  0  0
  -35.4539   61.4555   55.0045 C   0  0  0  0  0  0  0  0  0  0  0  0
  -36.0695   60.3625   54.4342 C   0  0  0  0  0  0  0  0  0  0  0  0
  -35.6210   59.0850   54.7159 C   0  0  0  0  0  0  0  0  0  0  0  0
  -34.5432   58.8954   55.5752 C   0  0  0  0  0  0  0  0  0  0  0  0
  -33.9929   55.4382   60.6419 C   0  0  0  0  0  0  0  0  0  0  0  0
  -36.2431   55.0100   59.8870 C   0  0  2  0  0  0  0  0  0  0  0  0
  -35.8198   53.7813   59.1223 C   0  0  0  0  0  0  0  0  0  0  0  0
  -36.1893   56.2651   59.0377 C   0  0  0  0  0  0  0  0  0  0  0  0
  -37.1452   56.2257   57.8661 C   0  0  0  0  0  0  0  0  0  0  0  0
  -37.2556   58.6484   58.1177 C   0  0  1  0  0  0  0  0  0  0  0  0
  -35.7430   58.8687   58.0028 C   0  0  0  0  0  0  0  0  0  0  0  0
  -35.1932   59.8717   59.0112 C   0  0  0  0  0  0  0  0  0  0  0  0
  -35.7432   61.2795   58.8960 C   0  0  0  0  0  0  0  0  0  0  0  0
  -37.2260   61.3913   59.1824 C   0  0  0  0  0  0  0  0  0  0  0  0
  -37.9890   59.7863   57.4254 C   0  0  0  0  0  0  0  0  0  0  0  0
  -38.4065   56.6510   60.9702 H   0  0  0  0  0  0  0  0  0  0  0  0
  -37.8413   60.5922   65.1816 H   0  0  0  0  0  0  0  0  0  0  0  0
  -38.6480   59.0460   65.2899 H   0  0  0  0  0  0  0  0  0  0  0  0
  -39.2923   60.4291   66.1413 H   0  0  0  0  0  0  0  0  0  0  0  0
  -39.1084   60.1363   63.1704 H   0  0  0  0  0  0  0  0  0  0  0  0
  -39.7757   61.5166   64.0649 H   0  0  0  0  0  0  0  0  0  0  0  0
  -33.8025   57.9396   59.3784 H   0  0  0  0  0  0  0  0  0  0  0  0
  -40.8679   58.7474   64.0810 H   0  0  0  0  0  0  0  0  0  0  0  0
  -41.5077   60.1527   63.1870 H   0  0  0  0  0  0  0  0  0  0  0  0
  -42.8051   59.6908   65.1647 H   0  0  0  0  0  0  0  0  0  0  0  0
  -41.9804   61.2635   65.2202 H   0  0  0  0  0  0  0  0  0  0  0  0
  -38.2585   57.4321   56.7096 H   0  0  0  0  0  0  0  0  0  0  0  0
  -33.4269   57.4586   56.4032 H   0  0  0  0  0  0  0  0  0  0  0  0
  -41.9228   60.1577   67.3663 H   0  0  0  0  0  0  0  0  0  0  0  0
  -40.3075   60.3580   66.6449 H   0  0  0  0  0  0  0  0  0  0  0  0
  -38.7998   61.5532   57.8110 H   0  0  0  0  0  0  0  0  0  0  0  0
  -40.5287   58.2250   67.7436 H   0  0  0  0  0  0  0  0  0  0  0  0
  -40.2988   58.0853   65.9814 H   0  0  0  0  0  0  0  0  0  0  0  0
  -41.8738   56.4615   66.8019 H   0  0  0  0  0  0  0  0  0  0  0  0
  -42.6025   57.6502   65.6920 H   0  0  0  0  0  0  0  0  0  0  0  0
  -43.5975   58.7960   67.5248 H   0  0  0  0  0  0  0  0  0  0  0  0
  -42.8581   57.6355   68.6460 H   0  0  0  0  0  0  0  0  0  0  0  0
  -45.1990   57.1570   68.2898 H   0  0  0  0  0  0  0  0  0  0  0  0
  -44.1384   55.8692   67.6950 H   0  0  0  0  0  0  0  0  0  0  0  0
  -45.4525   57.9510   66.0178 H   0  0  0  0  0  0  0  0  0  0  0  0
  -45.9430   56.2454   66.1968 H   0  0  0  0  0  0  0  0  0  0  0  0
  -43.9179   55.5253   65.1909 H   0  0  0  0  0  0  0  0  0  0  0  0
  -43.4000   57.2143   65.0292 H   0  0  0  0  0  0  0  0  0  0  0  0
  -45.2051   57.6497   63.5276 H   0  0  0  0  0  0  0  0  0  0  0  0
  -45.7377   55.9628   63.6997 H   0  0  0  0  0  0  0  0  0  0  0  0
  -44.5668   56.3147   61.6182 H   0  0  0  0  0  0  0  0  0  0  0  0
  -43.7163   55.2017   62.7114 H   0  0  0  0  0  0  0  0  0  0  0  0
  -42.1885   56.9250   63.3201 H   0  0  0  0  0  0  0  0  0  0  0  0
  -43.0504   58.0465   62.2334 H   0  0  0  0  0  0  0  0  0  0  0  0
  -41.5568   55.6212   61.3795 H   0  0  0  0  0  0  0  0  0  0  0  0
  -41.0057   57.3076   61.2671 H   0  0  0  0  0  0  0  0  0  0  0  0
  -43.3716   56.1626   59.8693 H   0  0  0  0  0  0  0  0  0  0  0  0
  -41.7776   56.5138   59.1606 H   0  0  0  0  0  0  0  0  0  0  0  0
  -43.6373   58.5430   60.3129 H   0  0  0  0  0  0  0  0  0  0  0  0
  -43.3841   58.2177   58.5980 H   0  0  0  0  0  0  0  0  0  0  0  0
  -41.9925   60.1444   59.3404 H   0  0  0  0  0  0  0  0  0  0  0  0
  -39.8215   59.6540   59.7374 H   0  0  0  0  0  0  0  0  0  0  0  0
  -38.9228   59.2185   61.9523 H   0  0  0  0  0  0  0  0  0  0  0  0
  -38.0041   59.3676   60.4601 H   0  0  0  0  0  0  0  0  0  0  0  0
  -37.1937   57.7896   62.8603 H   0  0  0  0  0  0  0  0  0  0  0  0
  -36.5565   59.3772   62.3453 H   0  0  0  0  0  0  0  0  0  0  0  0
  -35.6238   58.4067   60.3945 H   0  0  0  0  0  0  0  0  0  0  0  0
  -36.2729   56.8255   60.8717 H   0  0  0  0  0  0  0  0  0  0  0  0
  -34.8590   56.8018   62.8091 H   0  0  0  0  0  0  0  0  0  0  0  0
  -34.2203   58.3886   62.3599 H   0  0  0  0  0  0  0  0  0  0  0  0
  -32.6704   56.6456   61.7612 H   0  0  0  0  0  0  0  0  0  0  0  0
  -29.9606   57.7030   58.1033 H   0  0  0  0  0  0  0  0  0  0  0  0
  -29.4286   59.0467   59.0853 H   0  0  0  0  0  0  0  0  0  0  0  0
  -29.8852   59.3091   57.4193 H   0  0  0  0  0  0  0  0  0  0  0  0
  -32.3160   60.5993   59.9627 H   0  0  0  0  0  0  0  0  0  0  0  0
  -30.8772   61.0388   59.1502 H   0  0  0  0  0  0  0  0  0  0  0  0
  -33.9254   62.1131   56.2814 H   0  0  0  0  0  0  0  0  0  0  0  0
  -35.7965   62.4055   54.7923 H   0  0  0  0  0  0  0  0  0  0  0  0
  -36.8680   60.4978   53.7946 H   0  0  0  0  0  0  0  0  0  0  0  0
  -36.0870   58.2699   54.2875 H   0  0  0  0  0  0  0  0  0  0  0  0
  -37.2449   54.8453   60.2247 H   0  0  0  0  0  0  0  0  0  0  0  0
  -34.8186   53.9095   58.7673 H   0  0  0  0  0  0  0  0  0  0  0  0
  -36.4770   53.6347   58.2907 H   0  0  0  0  0  0  0  0  0  0  0  0
  -35.8634   52.9279   59.7662 H   0  0  0  0  0  0  0  0  0  0  0  0
  -35.1941   56.3807   58.6623 H   0  0  0  0  0  0  0  0  0  0  0  0
  -36.4786   57.0860   59.6600 H   0  0  0  0  0  0  0  0  0  0  0  0
  -37.5171   58.6102   59.1545 H   0  0  0  0  0  0  0  0  0  0  0  0
  -35.5273   59.2266   57.0178 H   0  0  0  0  0  0  0  0  0  0  0  0
  -35.2730   57.9293   58.2068 H   0  0  0  0  0  0  0  0  0  0  0  0
  -34.1321   59.9205   58.8829 H   0  0  0  0  0  0  0  0  0  0  0  0
  -35.4947   59.5159   59.9743 H   0  0  0  0  0  0  0  0  0  0  0  0
  -35.5664   61.6285   57.9001 H   0  0  0  0  0  0  0  0  0  0  0  0
  -35.2416   61.8674   59.6361 H   0  0  0  0  0  0  0  0  0  0  0  0
  -37.4467   60.8000   60.0463 H   0  0  0  0  0  0  0  0  0  0  0  0
  -37.4341   62.4307   59.3282 H   0  0  0  0  0  0  0  0  0  0  0  0
  1 33  1  0  0  0  0
  1 34  1  0  0  0  0
  1 61  1  0  0  0  0
  2  4  1  0  0  0  0
  2 62  1  0  0  0  0
  2 63  1  0  0  0  0
  2 64  1  0  0  0  0
  3 33  2  0  0  0  0
  4  7  1  0  0  0  0
  4 65  1  0  0  0  0
  4 66  1  0  0  0  0
  5 38  1  0  0  0  0
  5 39  1  0  0  0  0
  5 67  1  0  0  0  0
  6 39  2  0  0  0  0
  7 10  1  0  0  0  0
  7 68  1  0  0  0  0
  7 69  1  0  0  0  0
  8 40  1  0  0  0  0
  8 43  2  0  0  0  0
  9 42  1  0  0  0  0
  9 43  1  0  0  0  0
 10 13  1  0  0  0  0
 10 70  1  0  0  0  0
 10 71  1  0  0  0  0
 11 54  1  0  0  0  0
 11 55  1  0  0  0  0
 11 72  1  0  0  0  0
 12 49  1  0  0  0  0
 12 73  1  0  0  0  0
 13 16  1  0  0  0  0
 13 74  1  0  0  0  0
 13 75  1  0  0  0  0
 14 59  1  0  0  0  0
 14 60  1  0  0  0  0
 14 76  1  0  0  0  0
 15 50  2  0  0  0  0
 16 18  1  0  0  0  0
 16 77  1  0  0  0  0
 16 78  1  0  0  0  0
 17 50  1  0  0  0  0
 17 51  1  0  0  0  0
 18 20  1  0  0  0  0
 18 79  1  0  0  0  0
 18 80  1  0  0  0  0
 19 54  2  0  0  0  0
 20 22  1  0  0  0  0
 20 81  1  0  0  0  0
 20 82  1  0  0  0  0
 21 60  2  0  0  0  0
 22 23  1  0  0  0  0
 22 83  1  0  0  0  0
 22 84  1  0  0  0  0
 23 24  1  0  0  0  0
 23 85  1  0  0  0  0
 23 86  1  0  0  0  0
 24 25  1  0  0  0  0
 24 87  1  0  0  0  0
 24 88  1  0  0  0  0
 25 26  1  0  0  0  0
 25 89  1  0  0  0  0
 25 90  1  0  0  0  0
 26 27  1  0  0  0  0
 26 91  1  0  0  0  0
 26 92  1  0  0  0  0
 27 28  1  0  0  0  0
 27 93  1  0  0  0  0
 27 94  1  0  0  0  0
 28 29  1  0  0  0  0
 28 95  1  0  0  0  0
 28 96  1  0  0  0  0
 29 30  1  0  0  0  0
 29 97  1  0  0  0  0
 29 98  1  0  0  0  0
 30 31  1  0  0  0  0
 30 99  1  0  0  0  0
 30100  1  0  0  0  0
 31 32  2  0  0  0  0
 31101  1  0  0  0  0
 32 33  1  0  0  0  0
 32102  1  0  0  0  0
 34 35  1  0  0  0  0
 34103  1  0  0  0  0
 34104  1  0  0  0  0
 35 36  1  0  0  0  0
 35105  1  0  0  0  0
 35106  1  0  0  0  0
 36 37  1  0  0  0  0
 36107  1  0  0  0  0
 36108  1  0  0  0  0
 37 38  1  0  0  0  0
 37109  1  0  0  0  0
 37110  1  0  0  0  0
 38 50  1  0  0  0  0
 38111  1  1  0  0  0
 40 39  1  1  0  0  0
 40 41  1  0  0  0  0
 40 42  1  0  0  0  0
 41112  1  0  0  0  0
 41113  1  0  0  0  0
 41114  1  0  0  0  0
 42115  1  0  0  0  0
 42116  1  0  0  0  0
 43 44  1  0  0  0  0
 44 45  2  0  0  0  0
 44 49  1  0  0  0  0
 45 46  1  0  0  0  0
 45117  1  0  0  0  0
 46 47  2  0  0  0  0
 46118  1  0  0  0  0
 47 48  1  0  0  0  0
 47119  1  0  0  0  0
 48 49  2  0  0  0  0
 48120  1  0  0  0  0
 51 52  1  0  0  0  0
 51 53  1  0  0  0  0
 51121  1  1  0  0  0
 52122  1  0  0  0  0
 52123  1  0  0  0  0
 52124  1  0  0  0  0
 53 54  1  0  0  0  0
 53125  1  0  0  0  0
 53126  1  0  0  0  0
 55 56  1  0  0  0  0
 55 60  1  0  0  0  0
 55127  1  1  0  0  0
 56 57  1  0  0  0  0
 56128  1  0  0  0  0
 56129  1  0  0  0  0
 57 58  1  0  0  0  0
 57130  1  0  0  0  0
 57131  1  0  0  0  0
 58 59  1  0  0  0  0
 58132  1  0  0  0  0
 58133  1  0  0  0  0
 59134  1  0  0  0  0
 59135  1  0  0  0  0
M  END
$$$$