/media/chris/experiments/cd1a-new-docking/inputs/ligands/7ryo_ligand.pdb
 OpenBabel07032304133D

135137  0  0  1  0  0  0  0  0999 V2000
  -37.9573   56.3471   62.8329 N   0  0  0  0  0  0  0  0  0  0  0  0
  -40.9407   49.3053   56.5826 C   0  0  0  0  0  0  0  0  0  0  0  0
  -36.0281   55.6460   61.8945 O   0  0  0  0  0  0  0  0  0  0  0  0
  -42.4036   49.2523   56.2280 C   0  0  0  0  0  0  0  0  0  0  0  0
  -33.1324   57.6580   60.0424 N   0  0  0  0  0  0  0  0  0  0  0  0
  -31.4954   58.6525   61.2194 O   0  0  0  0  0  0  0  0  0  0  0  0
  -43.0117   47.8722   56.3993 C   0  0  0  0  0  0  0  0  0  0  0  0
  -32.9472   60.2480   58.6194 N   0  0  0  0  0  0  0  0  0  0  0  0
  -31.2329   61.6992   58.8146 O   0  0  0  0  0  0  0  0  0  0  0  0
  -42.3560   46.7872   55.5602 C   0  0  0  0  0  0  0  0  0  0  0  0
  -31.9606   53.8029   56.0157 N   0  0  0  0  0  0  0  0  0  0  0  0
  -34.9879   61.2702   57.0524 O   0  0  0  0  0  0  0  0  0  0  0  0
  -40.8806   46.5851   55.8770 C   0  0  0  0  0  0  0  0  0  0  0  0
  -28.4437   52.9780   56.2271 N   0  0  0  0  0  0  0  0  0  0  0  0
  -34.3862   54.5462   61.3419 O   0  0  0  0  0  0  0  0  0  0  0  0
  -40.2094   45.5136   55.0318 C   0  0  0  0  0  0  0  0  0  0  0  0
  -33.8796   55.3659   59.3043 O   0  0  0  0  0  0  0  0  0  0  0  0
  -38.7414   45.2944   55.3537 C   0  0  0  0  0  0  0  0  0  0  0  0
  -32.0085   55.6339   57.3221 O   0  0  0  0  0  0  0  0  0  0  0  0
  -37.8748   46.5306   55.1775 C   0  0  0  0  0  0  0  0  0  0  0  0
  -30.1218   52.9272   57.7144 O   0  0  0  0  0  0  0  0  0  0  0  0
  -36.4116   46.2839   55.4879 C   0  0  0  0  0  0  0  0  0  0  0  0
  -35.5603   47.5284   55.3251 C   0  0  0  0  0  0  0  0  0  0  0  0
  -35.9538   48.6782   56.2306 C   0  0  0  0  0  0  0  0  0  0  0  0
  -35.0957   49.9123   56.0322 C   0  0  0  0  0  0  0  0  0  0  0  0
  -35.4709   51.0660   56.9475 C   0  0  0  0  0  0  0  0  0  0  0  0
  -35.3332   50.7368   58.4221 C   0  0  0  0  0  0  0  0  0  0  0  0
  -35.7195   51.8712   59.3565 C   0  0  0  0  0  0  0  0  0  0  0  0
  -35.5589   51.5285   60.8275 C   0  0  0  0  0  0  0  0  0  0  0  0
  -35.9610   52.6567   61.7696 C   0  0  0  0  0  0  0  0  0  0  0  0
  -37.4005   53.0316   61.6025 C   0  0  0  0  0  0  0  0  0  0  0  0
  -37.9565   54.2215   61.7858 C   0  0  0  0  0  0  0  0  0  0  0  0
  -37.2176   55.4397   62.1862 C   0  0  0  0  0  0  0  0  0  0  0  0
  -37.4201   57.6362   63.2386 C   0  0  0  0  0  0  0  0  0  0  0  0
  -36.9560   58.4330   62.0390 C   0  0  0  0  0  0  0  0  0  0  0  0
  -35.8780   57.7610   61.2090 C   0  0  0  0  0  0  0  0  0  0  0  0
  -34.6110   57.4590   62.0020 C   0  0  0  0  0  0  0  0  0  0  0  0
  -33.5311   56.7980   61.1441 C   0  0  1  0  0  0  0  0  0  0  0  0
  -32.1284   58.5272   60.1816 C   0  0  0  0  0  0  0  0  0  0  0  0
  -31.7856   59.4163   58.9749 C   0  0  1  0  0  0  0  0  0  0  0  0
  -31.4316   58.5240   57.7890 C   0  0  0  0  0  0  0  0  0  0  0  0
  -30.6771   60.4384   59.2670 C   0  0  0  0  0  0  0  0  0  0  0  0
  -32.5442   61.4496   58.5624 C   0  0  0  0  0  0  0  0  0  0  0  0
  -33.3625   62.6208   58.2394 C   0  0  0  0  0  0  0  0  0  0  0  0
  -33.0499   63.8662   58.7860 C   0  0  0  0  0  0  0  0  0  0  0  0
  -33.9428   64.9195   58.6895 C   0  0  0  0  0  0  0  0  0  0  0  0
  -35.1528   64.7524   58.0519 C   0  0  0  0  0  0  0  0  0  0  0  0
  -35.4887   63.5270   57.5056 C   0  0  0  0  0  0  0  0  0  0  0  0
  -34.6054   62.4557   57.5943 C   0  0  0  0  0  0  0  0  0  0  0  0
  -33.9929   55.4382   60.6419 C   0  0  0  0  0  0  0  0  0  0  0  0
  -34.2608   54.1132   58.6446 C   0  0  2  0  0  0  0  0  0  0  0  0
  -33.3998   53.0091   59.2042 C   0  0  0  0  0  0  0  0  0  0  0  0
  -34.0174   54.3412   57.1654 C   0  0  0  0  0  0  0  0  0  0  0  0
  -32.5719   54.6520   56.8467 C   0  0  0  0  0  0  0  0  0  0  0  0
  -30.5765   53.9847   55.6145 C   0  0  1  0  0  0  0  0  0  0  0  0
  -30.2195   55.4754   55.6146 C   0  0  0  0  0  0  0  0  0  0  0  0
  -28.9763   55.8061   54.7958 C   0  0  0  0  0  0  0  0  0  0  0  0
  -27.6915   55.1572   55.2712 C   0  0  0  0  0  0  0  0  0  0  0  0
  -27.6870   53.6460   55.1737 C   0  0  0  0  0  0  0  0  0  0  0  0
  -29.6930   53.2504   56.6106 C   0  0  0  0  0  0  0  0  0  0  0  0
  -38.8959   56.1355   63.0411 H   0  0  0  0  0  0  0  0  0  0  0  0
  -40.5752   50.3008   56.4407 H   0  0  0  0  0  0  0  0  0  0  0  0
  -40.3966   48.6325   55.9531 H   0  0  0  0  0  0  0  0  0  0  0  0
  -40.8111   49.0202   57.6057 H   0  0  0  0  0  0  0  0  0  0  0  0
  -42.5167   49.5492   55.2063 H   0  0  0  0  0  0  0  0  0  0  0  0
  -42.9167   49.9108   56.8975 H   0  0  0  0  0  0  0  0  0  0  0  0
  -33.6085   57.5990   59.1827 H   0  0  0  0  0  0  0  0  0  0  0  0
  -44.0453   47.9260   56.1279 H   0  0  0  0  0  0  0  0  0  0  0  0
  -42.8623   47.5981   57.4228 H   0  0  0  0  0  0  0  0  0  0  0  0
  -42.4476   47.0550   54.5283 H   0  0  0  0  0  0  0  0  0  0  0  0
  -42.8559   45.8685   55.7860 H   0  0  0  0  0  0  0  0  0  0  0  0
  -32.4626   53.0319   55.6652 H   0  0  0  0  0  0  0  0  0  0  0  0
  -34.4160   60.5292   57.0954 H   0  0  0  0  0  0  0  0  0  0  0  0
  -40.7922   46.3066   56.9063 H   0  0  0  0  0  0  0  0  0  0  0  0
  -40.3866   47.5085   55.6572 H   0  0  0  0  0  0  0  0  0  0  0  0
  -27.9848   52.2500   56.7054 H   0  0  0  0  0  0  0  0  0  0  0  0
  -40.2883   45.7992   54.0036 H   0  0  0  0  0  0  0  0  0  0  0  0
  -40.7117   44.5936   55.2466 H   0  0  0  0  0  0  0  0  0  0  0  0
  -38.3671   44.5272   54.7086 H   0  0  0  0  0  0  0  0  0  0  0  0
  -38.6896   45.0270   56.3884 H   0  0  0  0  0  0  0  0  0  0  0  0
  -38.2369   47.2958   55.8320 H   0  0  0  0  0  0  0  0  0  0  0  0
  -37.9373   46.8185   54.1489 H   0  0  0  0  0  0  0  0  0  0  0  0
  -36.0439   45.5285   54.8253 H   0  0  0  0  0  0  0  0  0  0  0  0
  -36.3456   45.9791   56.5115 H   0  0  0  0  0  0  0  0  0  0  0  0
  -35.6407   47.8586   54.3105 H   0  0  0  0  0  0  0  0  0  0  0  0
  -34.5623   47.2536   55.5960 H   0  0  0  0  0  0  0  0  0  0  0  0
  -35.8602   48.3582   57.2474 H   0  0  0  0  0  0  0  0  0  0  0  0
  -36.9603   48.9468   55.9861 H   0  0  0  0  0  0  0  0  0  0  0  0
  -35.1994   50.2372   55.0180 H   0  0  0  0  0  0  0  0  0  0  0  0
  -34.0894   49.6370   56.2697 H   0  0  0  0  0  0  0  0  0  0  0  0
  -36.4883   51.3350   56.7540 H   0  0  0  0  0  0  0  0  0  0  0  0
  -34.7930   51.8671   56.7388 H   0  0  0  0  0  0  0  0  0  0  0  0
  -34.3127   50.4782   58.6135 H   0  0  0  0  0  0  0  0  0  0  0  0
  -36.0110   49.9330   58.6205 H   0  0  0  0  0  0  0  0  0  0  0  0
  -36.7440   52.1228   59.1777 H   0  0  0  0  0  0  0  0  0  0  0  0
  -35.0583   52.6867   59.1502 H   0  0  0  0  0  0  0  0  0  0  0  0
  -34.5318   51.2886   61.0077 H   0  0  0  0  0  0  0  0  0  0  0  0
  -36.2132   50.7063   61.0290 H   0  0  0  0  0  0  0  0  0  0  0  0
  -35.3536   53.5132   61.5640 H   0  0  0  0  0  0  0  0  0  0  0  0
  -35.8192   52.3181   62.7747 H   0  0  0  0  0  0  0  0  0  0  0  0
  -38.0363   52.2733   61.3096 H   0  0  0  0  0  0  0  0  0  0  0  0
  -38.9747   54.3037   61.6392 H   0  0  0  0  0  0  0  0  0  0  0  0
  -36.5906   57.4783   63.8958 H   0  0  0  0  0  0  0  0  0  0  0  0
  -38.1924   58.1861   63.7346 H   0  0  0  0  0  0  0  0  0  0  0  0
  -36.5724   59.3687   62.3887 H   0  0  0  0  0  0  0  0  0  0  0  0
  -37.8072   58.5391   61.3994 H   0  0  0  0  0  0  0  0  0  0  0  0
  -35.6238   58.4067   60.3945 H   0  0  0  0  0  0  0  0  0  0  0  0
  -36.2729   56.8255   60.8717 H   0  0  0  0  0  0  0  0  0  0  0  0
  -34.8590   56.8018   62.8091 H   0  0  0  0  0  0  0  0  0  0  0  0
  -34.2203   58.3886   62.3599 H   0  0  0  0  0  0  0  0  0  0  0  0
  -32.6704   56.6456   61.7612 H   0  0  0  0  0  0  0  0  0  0  0  0
  -32.2255   57.8276   57.6172 H   0  0  0  0  0  0  0  0  0  0  0  0
  -30.5287   57.9904   58.0012 H   0  0  0  0  0  0  0  0  0  0  0  0
  -31.2923   59.1283   56.9171 H   0  0  0  0  0  0  0  0  0  0  0  0
  -30.4583   60.4732   60.3138 H   0  0  0  0  0  0  0  0  0  0  0  0
  -29.7557   60.1966   58.7798 H   0  0  0  0  0  0  0  0  0  0  0  0
  -32.1464   64.0028   59.2657 H   0  0  0  0  0  0  0  0  0  0  0  0
  -33.7007   65.8359   59.0978 H   0  0  0  0  0  0  0  0  0  0  0  0
  -35.8107   65.5444   57.9816 H   0  0  0  0  0  0  0  0  0  0  0  0
  -36.3972   63.4070   57.0309 H   0  0  0  0  0  0  0  0  0  0  0  0
  -35.2812   53.8329   58.8036 H   0  0  0  0  0  0  0  0  0  0  0  0
  -32.3681   53.2550   59.0629 H   0  0  0  0  0  0  0  0  0  0  0  0
  -33.6207   52.0929   58.6975 H   0  0  0  0  0  0  0  0  0  0  0  0
  -33.5996   52.8958   60.2493 H   0  0  0  0  0  0  0  0  0  0  0  0
  -34.6222   55.1628   56.8427 H   0  0  0  0  0  0  0  0  0  0  0  0
  -34.2705   53.4352   56.6554 H   0  0  0  0  0  0  0  0  0  0  0  0
  -30.4292   53.5985   54.6275 H   0  0  0  0  0  0  0  0  0  0  0  0
  -30.0502   55.7825   56.6255 H   0  0  0  0  0  0  0  0  0  0  0  0
  -31.0393   55.9941   55.1632 H   0  0  0  0  0  0  0  0  0  0  0  0
  -28.8385   56.8669   54.8193 H   0  0  0  0  0  0  0  0  0  0  0  0
  -29.1574   55.4168   53.8157 H   0  0  0  0  0  0  0  0  0  0  0  0
  -27.5375   55.4280   56.2948 H   0  0  0  0  0  0  0  0  0  0  0  0
  -26.9125   55.5095   54.6278 H   0  0  0  0  0  0  0  0  0  0  0  0
  -28.1087   53.3691   54.2301 H   0  0  0  0  0  0  0  0  0  0  0  0
  -26.6692   53.3334   55.2797 H   0  0  0  0  0  0  0  0  0  0  0  0
  1 33  1  0  0  0  0
  1 34  1  0  0  0  0
  1 61  1  0  0  0  0
  2  4  1  0  0  0  0
  2 62  1  0  0  0  0
  2 63  1  0  0  0  0
  2 64  1  0  0  0  0
  3 33  2  0  0  0  0
  4  7  1  0  0  0  0
  4 65  1  0  0  0  0
  4 66  1  0  0  0  0
  5 38  1  0  0  0  0
  5 39  1  0  0  0  0
  5 67  1  0  0  0  0
  6 39  2  0  0  0  0
  7 10  1  0  0  0  0
  7 68  1  0  0  0  0
  7 69  1  0  0  0  0
  8 40  1  0  0  0  0
  8 43  2  0  0  0  0
  9 42  1  0  0  0  0
  9 43  1  0  0  0  0
 10 13  1  0  0  0  0
 10 70  1  0  0  0  0
 10 71  1  0  0  0  0
 11 54  1  0  0  0  0
 11 55  1  0  0  0  0
 11 72  1  0  0  0  0
 12 49  1  0  0  0  0
 12 73  1  0  0  0  0
 13 16  1  0  0  0  0
 13 74  1  0  0  0  0
 13 75  1  0  0  0  0
 14 59  1  0  0  0  0
 14 60  1  0  0  0  0
 14 76  1  0  0  0  0
 15 50  2  0  0  0  0
 16 18  1  0  0  0  0
 16 77  1  0  0  0  0
 16 78  1  0  0  0  0
 17 50  1  0  0  0  0
 17 51  1  0  0  0  0
 18 20  1  0  0  0  0
 18 79  1  0  0  0  0
 18 80  1  0  0  0  0
 19 54  2  0  0  0  0
 20 22  1  0  0  0  0
 20 81  1  0  0  0  0
 20 82  1  0  0  0  0
 21 60  2  0  0  0  0
 22 23  1  0  0  0  0
 22 83  1  0  0  0  0
 22 84  1  0  0  0  0
 23 24  1  0  0  0  0
 23 85  1  0  0  0  0
 23 86  1  0  0  0  0
 24 25  1  0  0  0  0
 24 87  1  0  0  0  0
 24 88  1  0  0  0  0
 25 26  1  0  0  0  0
 25 89  1  0  0  0  0
 25 90  1  0  0  0  0
 26 27  1  0  0  0  0
 26 91  1  0  0  0  0
 26 92  1  0  0  0  0
 27 28  1  0  0  0  0
 27 93  1  0  0  0  0
 27 94  1  0  0  0  0
 28 29  1  0  0  0  0
 28 95  1  0  0  0  0
 28 96  1  0  0  0  0
 29 30  1  0  0  0  0
 29 97  1  0  0  0  0
 29 98  1  0  0  0  0
 30 31  1  0  0  0  0
 30 99  1  0  0  0  0
 30100  1  0  0  0  0
 31 32  2  0  0  0  0
 31101  1  0  0  0  0
 32 33  1  0  0  0  0
 32102  1  0  0  0  0
 34 35  1  0  0  0  0
 34103  1  0  0  0  0
 34104  1  0  0  0  0
 35 36  1  0  0  0  0
 35105  1  0  0  0  0
 35106  1  0  0  0  0
 36 37  1  0  0  0  0
 36107  1  0  0  0  0
 36108  1  0  0  0  0
 37 38  1  0  0  0  0
 37109  1  0  0  0  0
 37110  1  0  0  0  0
 38 50  1  0  0  0  0
 38111  1  1  0  0  0
 40 39  1  1  0  0  0
 40 41  1  0  0  0  0
 40 42  1  0  0  0  0
 41112  1  0  0  0  0
 41113  1  0  0  0  0
 41114  1  0  0  0  0
 42115  1  0  0  0  0
 42116  1  0  0  0  0
 43 44  1  0  0  0  0
 44 45  2  0  0  0  0
 44 49  1  0  0  0  0
 45 46  1  0  0  0  0
 45117  1  0  0  0  0
 46 47  2  0  0  0  0
 46118  1  0  0  0  0
 47 48  1  0  0  0  0
 47119  1  0  0  0  0
 48 49  2  0  0  0  0
 48120  1  0  0  0  0
 51 52  1  0  0  0  0
 51 53  1  0  0  0  0
 51121  1  1  0  0  0
 52122  1  0  0  0  0
 52123  1  0  0  0  0
 52124  1  0  0  0  0
 53 54  1  0  0  0  0
 53125  1  0  0  0  0
 53126  1  0  0  0  0
 55 56  1  0  0  0  0
 55 60  1  0  0  0  0
 55127  1  6  0  0  0
 56 57  1  0  0  0  0
 56128  1  0  0  0  0
 56129  1  0  0  0  0
 57 58  1  0  0  0  0
 57130  1  0  0  0  0
 57131  1  0  0  0  0
 58 59  1  0  0  0  0
 58132  1  0  0  0  0
 58133  1  0  0  0  0
 59134  1  0  0  0  0
 59135  1  0  0  0  0
M  END
$$$$