/media/chris/experiments/cd1a-new-docking/inputs/ligands/7ryo_ligand.pdb
 OpenBabel07032304133D

135137  0  0  1  0  0  0  0  0999 V2000
  -38.4618   58.3450   63.9648 N   0  0  0  0  0  0  0  0  0  0  0  0
  -33.5033   61.6080   56.4898 C   0  0  0  0  0  0  0  0  0  0  0  0
  -39.8911   58.3837   62.2185 O   0  0  0  0  0  0  0  0  0  0  0  0
  -33.0143   60.1858   56.4062 C   0  0  0  0  0  0  0  0  0  0  0  0
  -33.6307   59.6738   61.5549 N   0  0  0  0  0  0  0  0  0  0  0  0
  -32.7891   61.1696   63.0068 O   0  0  0  0  0  0  0  0  0  0  0  0
  -33.1922   59.4143   57.7013 C   0  0  0  0  0  0  0  0  0  0  0  0
  -31.5492   62.6054   61.0321 N   0  0  0  0  0  0  0  0  0  0  0  0
  -31.1115   61.7272   59.0023 O   0  0  0  0  0  0  0  0  0  0  0  0
  -34.6345   59.2874   58.1649 C   0  0  0  0  0  0  0  0  0  0  0  0
  -30.9877   60.5153   68.7405 N   0  0  0  0  0  0  0  0  0  0  0  0
  -29.6946   63.4944   57.5718 O   0  0  0  0  0  0  0  0  0  0  0  0
  -35.5279   58.5571   57.1717 C   0  0  0  0  0  0  0  0  0  0  0  0
  -30.5235   58.6341   71.7966 N   0  0  0  0  0  0  0  0  0  0  0  0
  -32.0144   57.4691   63.2340 O   0  0  0  0  0  0  0  0  0  0  0  0
  -35.0942   57.1274   56.8874 C   0  0  0  0  0  0  0  0  0  0  0  0
  -32.6856   59.2067   64.5032 O   0  0  0  0  0  0  0  0  0  0  0  0
  -35.0876   56.2236   58.1080 C   0  0  0  0  0  0  0  0  0  0  0  0
  -31.6073   58.3635   68.5219 O   0  0  0  0  0  0  0  0  0  0  0  0
  -36.4454   56.0663   58.7727 C   0  0  0  0  0  0  0  0  0  0  0  0
  -32.2474   58.8528   70.3785 O   0  0  0  0  0  0  0  0  0  0  0  0
  -36.4112   55.1742   59.9978 C   0  0  0  0  0  0  0  0  0  0  0  0
  -37.7745   55.0113   60.6421 C   0  0  0  0  0  0  0  0  0  0  0  0
  -37.7802   54.1390   61.8815 C   0  0  0  0  0  0  0  0  0  0  0  0
  -39.1591   53.9819   62.4920 C   0  0  0  0  0  0  0  0  0  0  0  0
  -39.7927   55.2994   62.9073 C   0  0  0  0  0  0  0  0  0  0  0  0
  -41.1651   55.1389   63.5336 C   0  0  0  0  0  0  0  0  0  0  0  0
  -41.8250   56.4456   63.9413 C   0  0  0  0  0  0  0  0  0  0  0  0
  -42.0574   57.3973   62.7805 C   0  0  0  0  0  0  0  0  0  0  0  0
  -42.7034   58.7165   63.1862 C   0  0  0  0  0  0  0  0  0  0  0  0
  -41.8538   59.4736   64.1585 C   0  0  0  0  0  0  0  0  0  0  0  0
  -40.5322   59.4572   64.2670 C   0  0  0  0  0  0  0  0  0  0  0  0
  -39.6292   58.6694   63.3984 C   0  0  0  0  0  0  0  0  0  0  0  0
  -37.4201   57.6362   63.2386 C   0  0  0  0  0  0  0  0  0  0  0  0
  -36.9560   58.4330   62.0390 C   0  0  0  0  0  0  0  0  0  0  0  0
  -35.8780   57.7610   61.2090 C   0  0  0  0  0  0  0  0  0  0  0  0
  -34.6110   57.4590   62.0020 C   0  0  0  0  0  0  0  0  0  0  0  0
  -33.9807   58.7203   62.5945 C   0  0  1  0  0  0  0  0  0  0  0  0
  -33.0537   60.8384   61.8606 C   0  0  0  0  0  0  0  0  0  0  0  0
  -32.7373   61.8002   60.7036 C   0  0  1  0  0  0  0  0  0  0  0  0
  -33.9275   62.7321   60.4968 C   0  0  0  0  0  0  0  0  0  0  0  0
  -32.3465   61.0815   59.4038 C   0  0  0  0  0  0  0  0  0  0  0  0
  -30.7419   62.4958   60.0597 C   0  0  0  0  0  0  0  0  0  0  0  0
  -29.4263   63.1312   59.9532 C   0  0  0  0  0  0  0  0  0  0  0  0
  -28.6852   63.4047   61.1035 C   0  0  0  0  0  0  0  0  0  0  0  0
  -27.5649   64.2154   61.0408 C   0  0  0  0  0  0  0  0  0  0  0  0
  -27.1663   64.7631   59.8410 C   0  0  0  0  0  0  0  0  0  0  0  0
  -27.8859   64.5113   58.6871 C   0  0  0  0  0  0  0  0  0  0  0  0
  -29.0160   63.7007   58.7303 C   0  0  0  0  0  0  0  0  0  0  0  0
  -32.7733   58.3728   63.4524 C   0  0  0  0  0  0  0  0  0  0  0  0
  -32.0961   58.6954   65.7444 C   0  0  2  0  0  0  0  0  0  0  0  0
  -32.9198   57.5189   66.2034 C   0  0  0  0  0  0  0  0  0  0  0  0
  -32.1446   59.8512   66.7249 C   0  0  0  0  0  0  0  0  0  0  0  0
  -31.5542   59.5054   68.0738 C   0  0  0  0  0  0  0  0  0  0  0  0
  -30.3910   60.3299   70.0517 C   0  0  1  0  0  0  0  0  0  0  0  0
  -30.5109   61.6192   70.8720 C   0  0  0  0  0  0  0  0  0  0  0  0
  -29.5459   61.6854   72.0509 C   0  0  0  0  0  0  0  0  0  0  0  0
  -29.7248   60.6065   73.1005 C   0  0  0  0  0  0  0  0  0  0  0  0
  -29.4482   59.2038   72.6014 C   0  0  0  0  0  0  0  0  0  0  0  0
  -31.1350   59.2073   70.7576 C   0  0  0  0  0  0  0  0  0  0  0  0
  -38.3025   58.5942   64.9038 H   0  0  0  0  0  0  0  0  0  0  0  0
  -33.3498   62.0938   55.5489 H   0  0  0  0  0  0  0  0  0  0  0  0
  -32.9609   62.1273   57.2521 H   0  0  0  0  0  0  0  0  0  0  0  0
  -34.5464   61.6131   56.7279 H   0  0  0  0  0  0  0  0  0  0  0  0
  -31.9735   60.1982   56.1582 H   0  0  0  0  0  0  0  0  0  0  0  0
  -33.6001   59.6920   55.6593 H   0  0  0  0  0  0  0  0  0  0  0  0
  -33.8215   59.4582   60.6134 H   0  0  0  0  0  0  0  0  0  0  0  0
  -32.6375   59.9145   58.4674 H   0  0  0  0  0  0  0  0  0  0  0  0
  -32.8435   58.4202   57.5143 H   0  0  0  0  0  0  0  0  0  0  0  0
  -35.0293   60.2701   58.3172 H   0  0  0  0  0  0  0  0  0  0  0  0
  -34.6265   58.7101   59.0657 H   0  0  0  0  0  0  0  0  0  0  0  0
  -30.9743   61.4106   68.3313 H   0  0  0  0  0  0  0  0  0  0  0  0
  -30.4598   62.9536   57.5670 H   0  0  0  0  0  0  0  0  0  0  0  0
  -35.5215   59.1006   56.2500 H   0  0  0  0  0  0  0  0  0  0  0  0
  -36.5021   58.5044   57.6110 H   0  0  0  0  0  0  0  0  0  0  0  0
  -30.8302   57.7324   72.0458 H   0  0  0  0  0  0  0  0  0  0  0  0
  -34.1041   57.1514   56.4824 H   0  0  0  0  0  0  0  0  0  0  0  0
  -35.8112   56.7186   56.2064 H   0  0  0  0  0  0  0  0  0  0  0  0
  -34.4079   56.6334   58.8256 H   0  0  0  0  0  0  0  0  0  0  0  0
  -34.7958   55.2513   57.7697 H   0  0  0  0  0  0  0  0  0  0  0  0
  -37.1246   55.6428   58.0626 H   0  0  0  0  0  0  0  0  0  0  0  0
  -36.7555   57.0381   59.0958 H   0  0  0  0  0  0  0  0  0  0  0  0
  -35.7429   55.6030   60.7149 H   0  0  0  0  0  0  0  0  0  0  0  0
  -36.0851   54.2050   59.6826 H   0  0  0  0  0  0  0  0  0  0  0  0
  -38.4349   54.5746   59.9224 H   0  0  0  0  0  0  0  0  0  0  0  0
  -38.0839   55.9870   60.9536 H   0  0  0  0  0  0  0  0  0  0  0  0
  -37.1330   54.5795   62.6109 H   0  0  0  0  0  0  0  0  0  0  0  0
  -37.4486   53.1651   61.5876 H   0  0  0  0  0  0  0  0  0  0  0  0
  -39.0770   53.3580   63.3575 H   0  0  0  0  0  0  0  0  0  0  0  0
  -39.7887   53.5533   61.7405 H   0  0  0  0  0  0  0  0  0  0  0  0
  -39.8863   55.9187   62.0398 H   0  0  0  0  0  0  0  0  0  0  0  0
  -39.1566   55.7348   63.6494 H   0  0  0  0  0  0  0  0  0  0  0  0
  -41.0656   54.5276   64.4061 H   0  0  0  0  0  0  0  0  0  0  0  0
  -41.7926   54.6996   62.7864 H   0  0  0  0  0  0  0  0  0  0  0  0
  -41.1969   56.9327   64.6576 H   0  0  0  0  0  0  0  0  0  0  0  0
  -42.7858   56.2001   64.3430 H   0  0  0  0  0  0  0  0  0  0  0  0
  -42.6951   56.9138   62.0704 H   0  0  0  0  0  0  0  0  0  0  0  0
  -41.0961   57.6333   62.3740 H   0  0  0  0  0  0  0  0  0  0  0  0
  -43.6514   58.5134   63.6389 H   0  0  0  0  0  0  0  0  0  0  0  0
  -42.8184   59.3155   62.3071 H   0  0  0  0  0  0  0  0  0  0  0  0
  -42.3567   60.0811   64.8242 H   0  0  0  0  0  0  0  0  0  0  0  0
  -40.1038   60.0335   65.0082 H   0  0  0  0  0  0  0  0  0  0  0  0
  -37.8045   56.6947   62.9057 H   0  0  0  0  0  0  0  0  0  0  0  0
  -36.5868   57.4908   63.8939 H   0  0  0  0  0  0  0  0  0  0  0  0
  -36.5724   59.3687   62.3887 H   0  0  0  0  0  0  0  0  0  0  0  0
  -37.8072   58.5391   61.3994 H   0  0  0  0  0  0  0  0  0  0  0  0
  -35.6238   58.4067   60.3945 H   0  0  0  0  0  0  0  0  0  0  0  0
  -36.2729   56.8255   60.8717 H   0  0  0  0  0  0  0  0  0  0  0  0
  -33.9009   56.9930   61.3512 H   0  0  0  0  0  0  0  0  0  0  0  0
  -34.8793   56.8156   62.8138 H   0  0  0  0  0  0  0  0  0  0  0  0
  -34.7094   59.1851   63.2253 H   0  0  0  0  0  0  0  0  0  0  0  0
  -34.1689   63.2129   61.4217 H   0  0  0  0  0  0  0  0  0  0  0  0
  -34.7698   62.1653   60.1590 H   0  0  0  0  0  0  0  0  0  0  0  0
  -33.6785   63.4717   59.7647 H   0  0  0  0  0  0  0  0  0  0  0  0
  -32.1903   60.0376   59.5788 H   0  0  0  0  0  0  0  0  0  0  0  0
  -33.1069   61.1455   58.6537 H   0  0  0  0  0  0  0  0  0  0  0  0
  -28.9745   62.9997   62.0076 H   0  0  0  0  0  0  0  0  0  0  0  0
  -27.0249   64.4108   61.8982 H   0  0  0  0  0  0  0  0  0  0  0  0
  -26.3277   65.3634   59.8032 H   0  0  0  0  0  0  0  0  0  0  0  0
  -27.5839   64.9257   57.7916 H   0  0  0  0  0  0  0  0  0  0  0  0
  -31.0873   58.3553   65.6371 H   0  0  0  0  0  0  0  0  0  0  0  0
  -33.9392   57.8218   66.3223 H   0  0  0  0  0  0  0  0  0  0  0  0
  -32.5423   57.1624   67.1390 H   0  0  0  0  0  0  0  0  0  0  0  0
  -32.8627   56.7375   65.4747 H   0  0  0  0  0  0  0  0  0  0  0  0
  -33.1659   60.1388   66.8630 H   0  0  0  0  0  0  0  0  0  0  0  0
  -31.5588   60.6461   66.3127 H   0  0  0  0  0  0  0  0  0  0  0  0
  -29.3543   60.0857   69.9493 H   0  0  0  0  0  0  0  0  0  0  0  0
  -31.5100   61.6888   71.2485 H   0  0  0  0  0  0  0  0  0  0  0  0
  -30.2643   62.4303   70.2191 H   0  0  0  0  0  0  0  0  0  0  0  0
  -29.6731   62.6345   72.5283 H   0  0  0  0  0  0  0  0  0  0  0  0
  -28.5691   61.5372   71.6402 H   0  0  0  0  0  0  0  0  0  0  0  0
  -30.7346   60.6446   73.4524 H   0  0  0  0  0  0  0  0  0  0  0  0
  -29.0098   60.8055   73.8713 H   0  0  0  0  0  0  0  0  0  0  0  0
  -28.5597   59.2284   72.0057 H   0  0  0  0  0  0  0  0  0  0  0  0
  -29.3490   58.5827   73.4670 H   0  0  0  0  0  0  0  0  0  0  0  0
  1 33  1  0  0  0  0
  1 34  1  0  0  0  0
  1 61  1  0  0  0  0
  2  4  1  0  0  0  0
  2 62  1  0  0  0  0
  2 63  1  0  0  0  0
  2 64  1  0  0  0  0
  3 33  2  0  0  0  0
  4  7  1  0  0  0  0
  4 65  1  0  0  0  0
  4 66  1  0  0  0  0
  5 38  1  0  0  0  0
  5 39  1  0  0  0  0
  5 67  1  0  0  0  0
  6 39  2  0  0  0  0
  7 10  1  0  0  0  0
  7 68  1  0  0  0  0
  7 69  1  0  0  0  0
  8 40  1  0  0  0  0
  8 43  2  0  0  0  0
  9 42  1  0  0  0  0
  9 43  1  0  0  0  0
 10 13  1  0  0  0  0
 10 70  1  0  0  0  0
 10 71  1  0  0  0  0
 11 54  1  0  0  0  0
 11 55  1  0  0  0  0
 11 72  1  0  0  0  0
 12 49  1  0  0  0  0
 12 73  1  0  0  0  0
 13 16  1  0  0  0  0
 13 74  1  0  0  0  0
 13 75  1  0  0  0  0
 14 59  1  0  0  0  0
 14 60  1  0  0  0  0
 14 76  1  0  0  0  0
 15 50  2  0  0  0  0
 16 18  1  0  0  0  0
 16 77  1  0  0  0  0
 16 78  1  0  0  0  0
 17 50  1  0  0  0  0
 17 51  1  0  0  0  0
 18 20  1  0  0  0  0
 18 79  1  0  0  0  0
 18 80  1  0  0  0  0
 19 54  2  0  0  0  0
 20 22  1  0  0  0  0
 20 81  1  0  0  0  0
 20 82  1  0  0  0  0
 21 60  2  0  0  0  0
 22 23  1  0  0  0  0
 22 83  1  0  0  0  0
 22 84  1  0  0  0  0
 23 24  1  0  0  0  0
 23 85  1  0  0  0  0
 23 86  1  0  0  0  0
 24 25  1  0  0  0  0
 24 87  1  0  0  0  0
 24 88  1  0  0  0  0
 25 26  1  0  0  0  0
 25 89  1  0  0  0  0
 25 90  1  0  0  0  0
 26 27  1  0  0  0  0
 26 91  1  0  0  0  0
 26 92  1  0  0  0  0
 27 28  1  0  0  0  0
 27 93  1  0  0  0  0
 27 94  1  0  0  0  0
 28 29  1  0  0  0  0
 28 95  1  0  0  0  0
 28 96  1  0  0  0  0
 29 30  1  0  0  0  0
 29 97  1  0  0  0  0
 29 98  1  0  0  0  0
 30 31  1  0  0  0  0
 30 99  1  0  0  0  0
 30100  1  0  0  0  0
 31 32  2  0  0  0  0
 31101  1  0  0  0  0
 32 33  1  0  0  0  0
 32102  1  0  0  0  0
 34 35  1  0  0  0  0
 34103  1  0  0  0  0
 34104  1  0  0  0  0
 35 36  1  0  0  0  0
 35105  1  0  0  0  0
 35106  1  0  0  0  0
 36 37  1  0  0  0  0
 36107  1  0  0  0  0
 36108  1  0  0  0  0
 37 38  1  0  0  0  0
 37109  1  0  0  0  0
 37110  1  0  0  0  0
 38 50  1  0  0  0  0
 38111  1  1  0  0  0
 40 39  1  1  0  0  0
 40 41  1  0  0  0  0
 40 42  1  0  0  0  0
 41112  1  0  0  0  0
 41113  1  0  0  0  0
 41114  1  0  0  0  0
 42115  1  0  0  0  0
 42116  1  0  0  0  0
 43 44  1  0  0  0  0
 44 45  2  0  0  0  0
 44 49  1  0  0  0  0
 45 46  1  0  0  0  0
 45117  1  0  0  0  0
 46 47  2  0  0  0  0
 46118  1  0  0  0  0
 47 48  1  0  0  0  0
 47119  1  0  0  0  0
 48 49  2  0  0  0  0
 48120  1  0  0  0  0
 51 52  1  0  0  0  0
 51 53  1  0  0  0  0
 51121  1  6  0  0  0
 52122  1  0  0  0  0
 52123  1  0  0  0  0
 52124  1  0  0  0  0
 53 54  1  0  0  0  0
 53125  1  0  0  0  0
 53126  1  0  0  0  0
 55 56  1  0  0  0  0
 55 60  1  0  0  0  0
 55127  1  6  0  0  0
 56 57  1  0  0  0  0
 56128  1  0  0  0  0
 56129  1  0  0  0  0
 57 58  1  0  0  0  0
 57130  1  0  0  0  0
 57131  1  0  0  0  0
 58 59  1  0  0  0  0
 58132  1  0  0  0  0
 58133  1  0  0  0  0
 59134  1  0  0  0  0
 59135  1  0  0  0  0
M  END
$$$$