/media/chris/experiments/cd1a-new-docking/inputs/ligands/7ryo_ligand.pdb
 OpenBabel07032304133D

135137  0  0  1  0  0  0  0  0999 V2000
  -36.2311   60.7237   61.5795 N   0  0  0  0  0  0  0  0  0  0  0  0
  -27.7032   58.5136   69.3181 C   0  0  0  0  0  0  0  0  0  0  0  0
  -35.0643   62.5210   60.8710 O   0  0  0  0  0  0  0  0  0  0  0  0
  -26.5203   59.4262   69.5093 C   0  0  0  0  0  0  0  0  0  0  0  0
  -33.6519   56.2542   63.9242 N   0  0  0  0  0  0  0  0  0  0  0  0
  -34.6659   54.8731   65.3795 O   0  0  0  0  0  0  0  0  0  0  0  0
  -25.4882   59.3084   68.4025 C   0  0  0  0  0  0  0  0  0  0  0  0
  -32.4776   55.6718   67.1323 N   0  0  0  0  0  0  0  0  0  0  0  0
  -31.6258   53.5880   67.2559 O   0  0  0  0  0  0  0  0  0  0  0  0
  -24.8988   57.9169   68.2374 C   0  0  0  0  0  0  0  0  0  0  0  0
  -34.3488   52.0183   61.8740 N   0  0  0  0  0  0  0  0  0  0  0  0
  -31.9756   57.1273   69.4332 O   0  0  0  0  0  0  0  0  0  0  0  0
  -25.9358   56.8568   67.8926 C   0  0  0  0  0  0  0  0  0  0  0  0
  -31.8045   49.5616   62.6391 N   0  0  0  0  0  0  0  0  0  0  0  0
  -35.8977   54.3388   63.4171 O   0  0  0  0  0  0  0  0  0  0  0  0
  -26.6703   57.1146   66.5860 C   0  0  0  0  0  0  0  0  0  0  0  0
  -35.5588   55.1830   61.3548 O   0  0  0  0  0  0  0  0  0  0  0  0
  -27.7185   56.0701   66.2436 C   0  0  0  0  0  0  0  0  0  0  0  0
  -34.7588   52.2881   59.6783 O   0  0  0  0  0  0  0  0  0  0  0  0
  -28.4395   56.3203   64.9292 C   0  0  0  0  0  0  0  0  0  0  0  0
  -33.4124   50.5350   63.8631 O   0  0  0  0  0  0  0  0  0  0  0  0
  -29.1656   57.6504   64.8896 C   0  0  0  0  0  0  0  0  0  0  0  0
  -29.8950   57.8810   63.5801 C   0  0  0  0  0  0  0  0  0  0  0  0
  -29.0018   57.8665   62.3558 C   0  0  0  0  0  0  0  0  0  0  0  0
  -29.7572   58.1165   61.0653 C   0  0  0  0  0  0  0  0  0  0  0  0
  -30.4546   59.4661   61.0219 C   0  0  0  0  0  0  0  0  0  0  0  0
  -31.2240   59.7076   59.7368 C   0  0  0  0  0  0  0  0  0  0  0  0
  -31.9158   61.0587   59.6647 C   0  0  0  0  0  0  0  0  0  0  0  0
  -32.9229   61.2862   60.7787 C   0  0  0  0  0  0  0  0  0  0  0  0
  -32.3151   61.2460   62.1754 C   0  0  0  0  0  0  0  0  0  0  0  0
  -33.3496   61.4584   63.2362 C   0  0  0  0  0  0  0  0  0  0  0  0
  -34.6497   61.6627   63.0735 C   0  0  0  0  0  0  0  0  0  0  0  0
  -35.3353   61.6998   61.7624 C   0  0  0  0  0  0  0  0  0  0  0  0
  -36.5610   59.7701   62.6268 C   0  0  0  0  0  0  0  0  0  0  0  0
  -36.9560   58.4330   62.0390 C   0  0  0  0  0  0  0  0  0  0  0  0
  -35.8780   57.7610   61.2090 C   0  0  0  0  0  0  0  0  0  0  0  0
  -34.6110   57.4590   62.0020 C   0  0  0  0  0  0  0  0  0  0  0  0
  -34.8704   56.5130   63.1754 C   0  0  1  0  0  0  0  0  0  0  0  0
  -33.6588   55.4398   64.9822 C   0  0  0  0  0  0  0  0  0  0  0  0
  -32.3321   55.2384   65.7328 C   0  0  1  0  0  0  0  0  0  0  0  0
  -31.2521   56.0813   65.0612 C   0  0  0  0  0  0  0  0  0  0  0  0
  -31.9138   53.7650   65.8457 C   0  0  0  0  0  0  0  0  0  0  0  0
  -32.0752   54.7167   67.8639 C   0  0  0  0  0  0  0  0  0  0  0  0
  -32.0380   54.7065   69.3282 C   0  0  0  0  0  0  0  0  0  0  0  0
  -32.1959   53.5077   70.0248 C   0  0  0  0  0  0  0  0  0  0  0  0
  -32.4062   53.5129   71.3930 C   0  0  0  0  0  0  0  0  0  0  0  0
  -32.4623   54.7027   72.0857 C   0  0  0  0  0  0  0  0  0  0  0  0
  -32.3134   55.9048   71.4184 C   0  0  0  0  0  0  0  0  0  0  0  0
  -32.1033   55.9202   70.0431 C   0  0  0  0  0  0  0  0  0  0  0  0
  -35.5090   55.2173   62.6978 C   0  0  0  0  0  0  0  0  0  0  0  0
  -36.6354   54.4148   60.7221 C   0  0  2  0  0  0  0  0  0  0  0  0
  -37.9514   55.0109   61.1539 C   0  0  0  0  0  0  0  0  0  0  0  0
  -36.4600   52.9897   61.2096 C   0  0  0  0  0  0  0  0  0  0  0  0
  -35.1129   52.4045   60.8482 C   0  0  0  0  0  0  0  0  0  0  0  0
  -33.0361   51.4295   61.6738 C   0  0  1  0  0  0  0  0  0  0  0  0
  -31.9640   52.5250   61.6598 C   0  0  0  0  0  0  0  0  0  0  0  0
  -30.6512   52.0870   61.0195 C   0  0  0  0  0  0  0  0  0  0  0  0
  -29.9422   50.9376   61.7080 C   0  0  0  0  0  0  0  0  0  0  0  0
  -30.7073   49.6311   61.6800 C   0  0  0  0  0  0  0  0  0  0  0  0
  -32.7665   50.4690   62.8213 C   0  0  0  0  0  0  0  0  0  0  0  0
  -36.6819   60.6483   60.7075 H   0  0  0  0  0  0  0  0  0  0  0  0
  -28.3897   58.6451   70.1282 H   0  0  0  0  0  0  0  0  0  0  0  0
  -27.3695   57.4973   69.2947 H   0  0  0  0  0  0  0  0  0  0  0  0
  -28.1908   58.7502   68.3955 H   0  0  0  0  0  0  0  0  0  0  0  0
  -26.0505   59.1834   70.4394 H   0  0  0  0  0  0  0  0  0  0  0  0
  -26.8885   60.4307   69.4946 H   0  0  0  0  0  0  0  0  0  0  0  0
  -32.8109   56.6849   63.6478 H   0  0  0  0  0  0  0  0  0  0  0  0
  -24.6890   59.9868   68.6170 H   0  0  0  0  0  0  0  0  0  0  0  0
  -25.9947   59.5354   67.4878 H   0  0  0  0  0  0  0  0  0  0  0  0
  -24.4225   57.6394   69.1545 H   0  0  0  0  0  0  0  0  0  0  0  0
  -24.2094   57.9612   67.4203 H   0  0  0  0  0  0  0  0  0  0  0  0
  -34.6850   52.1362   62.7917 H   0  0  0  0  0  0  0  0  0  0  0  0
  -31.8333   57.1721   68.5082 H   0  0  0  0  0  0  0  0  0  0  0  0
  -26.6565   56.8211   68.6827 H   0  0  0  0  0  0  0  0  0  0  0  0
  -25.4084   55.9333   67.7752 H   0  0  0  0  0  0  0  0  0  0  0  0
  -31.8391   48.7617   63.2120 H   0  0  0  0  0  0  0  0  0  0  0  0
  -25.9498   57.1384   65.7953 H   0  0  0  0  0  0  0  0  0  0  0  0
  -27.1888   58.0432   66.7031 H   0  0  0  0  0  0  0  0  0  0  0  0
  -28.4460   56.0548   67.0280 H   0  0  0  0  0  0  0  0  0  0  0  0
  -27.2024   55.1386   66.1393 H   0  0  0  0  0  0  0  0  0  0  0  0
  -29.1541   55.5382   64.7792 H   0  0  0  0  0  0  0  0  0  0  0  0
  -27.6975   56.3403   64.1585 H   0  0  0  0  0  0  0  0  0  0  0  0
  -28.4507   58.4348   65.0259 H   0  0  0  0  0  0  0  0  0  0  0  0
  -29.8977   57.6420   65.6699 H   0  0  0  0  0  0  0  0  0  0  0  0
  -30.3794   58.8338   63.6299 H   0  0  0  0  0  0  0  0  0  0  0  0
  -30.5829   57.0693   63.4663 H   0  0  0  0  0  0  0  0  0  0  0  0
  -28.5266   56.9099   62.2924 H   0  0  0  0  0  0  0  0  0  0  0  0
  -28.2925   58.6596   62.4691 H   0  0  0  0  0  0  0  0  0  0  0  0
  -30.4952   57.3502   60.9511 H   0  0  0  0  0  0  0  0  0  0  0  0
  -29.0378   58.1088   60.2733 H   0  0  0  0  0  0  0  0  0  0  0  0
  -29.7154   60.2329   61.1234 H   0  0  0  0  0  0  0  0  0  0  0  0
  -31.1651   59.4795   61.8218 H   0  0  0  0  0  0  0  0  0  0  0  0
  -31.9686   58.9448   59.6441 H   0  0  0  0  0  0  0  0  0  0  0  0
  -30.5068   59.6885   58.9430 H   0  0  0  0  0  0  0  0  0  0  0  0
  -32.4270   61.1274   58.7272 H   0  0  0  0  0  0  0  0  0  0  0  0
  -31.1570   61.8057   59.7701 H   0  0  0  0  0  0  0  0  0  0  0  0
  -33.6733   60.5261   60.7154 H   0  0  0  0  0  0  0  0  0  0  0  0
  -33.3226   62.2692   60.6412 H   0  0  0  0  0  0  0  0  0  0  0  0
  -31.5752   62.0149   62.2539 H   0  0  0  0  0  0  0  0  0  0  0  0
  -31.8808   60.2792   62.3222 H   0  0  0  0  0  0  0  0  0  0  0  0
  -33.0104   61.4441   64.2108 H   0  0  0  0  0  0  0  0  0  0  0  0
  -35.2231   61.8058   63.9196 H   0  0  0  0  0  0  0  0  0  0  0  0
  -37.3764   60.1530   63.2042 H   0  0  0  0  0  0  0  0  0  0  0  0
  -35.6979   59.6294   63.2434 H   0  0  0  0  0  0  0  0  0  0  0  0
  -37.8119   58.5833   61.4147 H   0  0  0  0  0  0  0  0  0  0  0  0
  -37.1476   57.7838   62.8677 H   0  0  0  0  0  0  0  0  0  0  0  0
  -35.6238   58.4067   60.3945 H   0  0  0  0  0  0  0  0  0  0  0  0
  -36.2729   56.8255   60.8717 H   0  0  0  0  0  0  0  0  0  0  0  0
  -34.2161   58.3779   62.3821 H   0  0  0  0  0  0  0  0  0  0  0  0
  -33.9192   56.9787   61.3420 H   0  0  0  0  0  0  0  0  0  0  0  0
  -35.5592   56.9942   63.8379 H   0  0  0  0  0  0  0  0  0  0  0  0
  -31.5794   57.0983   65.0011 H   0  0  0  0  0  0  0  0  0  0  0  0
  -31.0687   55.7068   64.0759 H   0  0  0  0  0  0  0  0  0  0  0  0
  -30.3509   56.0300   65.6358 H   0  0  0  0  0  0  0  0  0  0  0  0
  -32.7089   53.1193   65.5361 H   0  0  0  0  0  0  0  0  0  0  0  0
  -31.0780   53.5256   65.2219 H   0  0  0  0  0  0  0  0  0  0  0  0
  -32.1555   52.6106   69.5162 H   0  0  0  0  0  0  0  0  0  0  0  0
  -32.5218   52.6200   71.8973 H   0  0  0  0  0  0  0  0  0  0  0  0
  -32.6159   54.6967   73.1062 H   0  0  0  0  0  0  0  0  0  0  0  0
  -32.3583   56.7930   71.9420 H   0  0  0  0  0  0  0  0  0  0  0  0
  -36.6121   54.4359   59.6526 H   0  0  0  0  0  0  0  0  0  0  0  0
  -38.0114   55.0067   62.2222 H   0  0  0  0  0  0  0  0  0  0  0  0
  -38.7551   54.4319   60.7493 H   0  0  0  0  0  0  0  0  0  0  0  0
  -38.0216   56.0170   60.7967 H   0  0  0  0  0  0  0  0  0  0  0  0
  -37.2244   52.3826   60.7714 H   0  0  0  0  0  0  0  0  0  0  0  0
  -36.5266   53.0056   62.2774 H   0  0  0  0  0  0  0  0  0  0  0  0
  -33.0076   50.9120   60.7377 H   0  0  0  0  0  0  0  0  0  0  0  0
  -31.7665   52.8178   62.6698 H   0  0  0  0  0  0  0  0  0  0  0  0
  -32.3471   53.3310   61.0695 H   0  0  0  0  0  0  0  0  0  0  0  0
  -29.9895   52.9278   61.0156 H   0  0  0  0  0  0  0  0  0  0  0  0
  -30.9043   51.7333   60.0419 H   0  0  0  0  0  0  0  0  0  0  0  0
  -29.7777   51.2085   62.7300 H   0  0  0  0  0  0  0  0  0  0  0  0
  -29.0313   50.7724   61.1715 H   0  0  0  0  0  0  0  0  0  0  0  0
  -31.1109   49.4991   60.6979 H   0  0  0  0  0  0  0  0  0  0  0  0
  -30.0137   48.8620   61.9491 H   0  0  0  0  0  0  0  0  0  0  0  0
  1 33  1  0  0  0  0
  1 34  1  0  0  0  0
  1 61  1  0  0  0  0
  2  4  1  0  0  0  0
  2 62  1  0  0  0  0
  2 63  1  0  0  0  0
  2 64  1  0  0  0  0
  3 33  2  0  0  0  0
  4  7  1  0  0  0  0
  4 65  1  0  0  0  0
  4 66  1  0  0  0  0
  5 38  1  0  0  0  0
  5 39  1  0  0  0  0
  5 67  1  0  0  0  0
  6 39  2  0  0  0  0
  7 10  1  0  0  0  0
  7 68  1  0  0  0  0
  7 69  1  0  0  0  0
  8 40  1  0  0  0  0
  8 43  2  0  0  0  0
  9 42  1  0  0  0  0
  9 43  1  0  0  0  0
 10 13  1  0  0  0  0
 10 70  1  0  0  0  0
 10 71  1  0  0  0  0
 11 54  1  0  0  0  0
 11 55  1  0  0  0  0
 11 72  1  0  0  0  0
 12 49  1  0  0  0  0
 12 73  1  0  0  0  0
 13 16  1  0  0  0  0
 13 74  1  0  0  0  0
 13 75  1  0  0  0  0
 14 59  1  0  0  0  0
 14 60  1  0  0  0  0
 14 76  1  0  0  0  0
 15 50  2  0  0  0  0
 16 18  1  0  0  0  0
 16 77  1  0  0  0  0
 16 78  1  0  0  0  0
 17 50  1  0  0  0  0
 17 51  1  0  0  0  0
 18 20  1  0  0  0  0
 18 79  1  0  0  0  0
 18 80  1  0  0  0  0
 19 54  2  0  0  0  0
 20 22  1  0  0  0  0
 20 81  1  0  0  0  0
 20 82  1  0  0  0  0
 21 60  2  0  0  0  0
 22 23  1  0  0  0  0
 22 83  1  0  0  0  0
 22 84  1  0  0  0  0
 23 24  1  0  0  0  0
 23 85  1  0  0  0  0
 23 86  1  0  0  0  0
 24 25  1  0  0  0  0
 24 87  1  0  0  0  0
 24 88  1  0  0  0  0
 25 26  1  0  0  0  0
 25 89  1  0  0  0  0
 25 90  1  0  0  0  0
 26 27  1  0  0  0  0
 26 91  1  0  0  0  0
 26 92  1  0  0  0  0
 27 28  1  0  0  0  0
 27 93  1  0  0  0  0
 27 94  1  0  0  0  0
 28 29  1  0  0  0  0
 28 95  1  0  0  0  0
 28 96  1  0  0  0  0
 29 30  1  0  0  0  0
 29 97  1  0  0  0  0
 29 98  1  0  0  0  0
 30 31  1  0  0  0  0
 30 99  1  0  0  0  0
 30100  1  0  0  0  0
 31 32  2  0  0  0  0
 31101  1  0  0  0  0
 32 33  1  0  0  0  0
 32102  1  0  0  0  0
 34 35  1  0  0  0  0
 34103  1  0  0  0  0
 34104  1  0  0  0  0
 35 36  1  0  0  0  0
 35105  1  0  0  0  0
 35106  1  0  0  0  0
 36 37  1  0  0  0  0
 36107  1  0  0  0  0
 36108  1  0  0  0  0
 37 38  1  0  0  0  0
 37109  1  0  0  0  0
 37110  1  0  0  0  0
 38 50  1  0  0  0  0
 38111  1  1  0  0  0
 40 39  1  6  0  0  0
 40 41  1  0  0  0  0
 40 42  1  0  0  0  0
 41112  1  0  0  0  0
 41113  1  0  0  0  0
 41114  1  0  0  0  0
 42115  1  0  0  0  0
 42116  1  0  0  0  0
 43 44  1  0  0  0  0
 44 45  2  0  0  0  0
 44 49  1  0  0  0  0
 45 46  1  0  0  0  0
 45117  1  0  0  0  0
 46 47  2  0  0  0  0
 46118  1  0  0  0  0
 47 48  1  0  0  0  0
 47119  1  0  0  0  0
 48 49  2  0  0  0  0
 48120  1  0  0  0  0
 51 52  1  0  0  0  0
 51 53  1  0  0  0  0
 51121  1  6  0  0  0
 52122  1  0  0  0  0
 52123  1  0  0  0  0
 52124  1  0  0  0  0
 53 54  1  0  0  0  0
 53125  1  0  0  0  0
 53126  1  0  0  0  0
 55 56  1  0  0  0  0
 55 60  1  0  0  0  0
 55127  1  6  0  0  0
 56 57  1  0  0  0  0
 56128  1  0  0  0  0
 56129  1  0  0  0  0
 57 58  1  0  0  0  0
 57130  1  0  0  0  0
 57131  1  0  0  0  0
 58 59  1  0  0  0  0
 58132  1  0  0  0  0
 58133  1  0  0  0  0
 59134  1  0  0  0  0
 59135  1  0  0  0  0
M  END
$$$$