/media/chris/experiments/cd1a-new-docking/inputs/ligands/7ryo_ligand.pdb
 OpenBabel07032304133D

135137  0  0  1  0  0  0  0  0999 V2000
  -39.2043   59.3899   62.1545 N   0  0  0  0  0  0  0  0  0  0  0  0
  -34.8495   60.9683   55.9116 C   0  0  0  0  0  0  0  0  0  0  0  0
  -40.7915   59.5309   60.5561 O   0  0  0  0  0  0  0  0  0  0  0  0
  -35.1305   59.5021   56.1109 C   0  0  0  0  0  0  0  0  0  0  0  0
  -34.0017   55.5459   60.5756 N   0  0  0  0  0  0  0  0  0  0  0  0
  -35.6789   56.5223   59.4411 O   0  0  0  0  0  0  0  0  0  0  0  0
  -36.1670   58.9545   55.1466 C   0  0  0  0  0  0  0  0  0  0  0  0
  -36.9573   54.1546   58.9852 N   0  0  0  0  0  0  0  0  0  0  0  0
  -36.0618   53.4248   57.0491 O   0  0  0  0  0  0  0  0  0  0  0  0
  -37.5230   59.6373   55.2261 C   0  0  0  0  0  0  0  0  0  0  0  0
  -26.8211   57.9823   61.3311 N   0  0  0  0  0  0  0  0  0  0  0  0
  -37.7046   51.6144   55.9533 O   0  0  0  0  0  0  0  0  0  0  0  0
  -38.5496   59.0592   54.2617 C   0  0  0  0  0  0  0  0  0  0  0  0
  -23.3733   58.7371   60.5331 N   0  0  0  0  0  0  0  0  0  0  0  0
  -32.1446   55.8670   62.8909 O   0  0  0  0  0  0  0  0  0  0  0  0
  -39.9055   59.7456   54.3200 C   0  0  0  0  0  0  0  0  0  0  0  0
  -31.2621   57.3590   61.4502 O   0  0  0  0  0  0  0  0  0  0  0  0
  -40.9401   59.1634   53.3727 C   0  0  0  0  0  0  0  0  0  0  0  0
  -27.1966   56.3046   59.8800 O   0  0  0  0  0  0  0  0  0  0  0  0
  -42.2894   59.8615   53.4203 C   0  0  0  0  0  0  0  0  0  0  0  0
  -25.2974   58.9898   59.4084 O   0  0  0  0  0  0  0  0  0  0  0  0
  -42.9323   59.8264   54.7927 C   0  0  0  0  0  0  0  0  0  0  0  0
  -44.2853   60.5110   54.8234 C   0  0  0  0  0  0  0  0  0  0  0  0
  -44.9546   60.5125   56.1832 C   0  0  0  0  0  0  0  0  0  0  0  0
  -44.1448   61.2319   57.2440 C   0  0  0  0  0  0  0  0  0  0  0  0
  -44.7990   61.2246   58.6157 C   0  0  0  0  0  0  0  0  0  0  0  0
  -43.9956   61.9595   59.6722 C   0  0  0  0  0  0  0  0  0  0  0  0
  -44.6232   61.9505   61.0562 C   0  0  0  0  0  0  0  0  0  0  0  0
  -44.8042   60.5568   61.6325 C   0  0  0  0  0  0  0  0  0  0  0  0
  -43.5001   59.7873   61.8029 C   0  0  0  0  0  0  0  0  0  0  0  0
  -42.5622   60.4862   62.7369 C   0  0  0  0  0  0  0  0  0  0  0  0
  -41.2363   60.4700   62.7195 C   0  0  0  0  0  0  0  0  0  0  0  0
  -40.4196   59.7432   61.7219 C   0  0  0  0  0  0  0  0  0  0  0  0
  -38.2360   58.7337   61.2903 C   0  0  0  0  0  0  0  0  0  0  0  0
  -36.9560   58.4330   62.0390 C   0  0  0  0  0  0  0  0  0  0  0  0
  -35.8780   57.7610   61.2090 C   0  0  0  0  0  0  0  0  0  0  0  0
  -34.6110   57.4590   62.0020 C   0  0  0  0  0  0  0  0  0  0  0  0
  -33.5311   56.7980   61.1441 C   0  0  1  0  0  0  0  0  0  0  0  0
  -35.0564   55.5194   59.7572 C   0  0  0  0  0  0  0  0  0  0  0  0
  -35.5035   54.1507   59.2180 C   0  0  1  0  0  0  0  0  0  0  0  0
  -35.1686   53.0796   60.2517 C   0  0  0  0  0  0  0  0  0  0  0  0
  -34.9115   53.8156   57.8411 C   0  0  0  0  0  0  0  0  0  0  0  0
  -37.1474   53.7531   57.7969 C   0  0  0  0  0  0  0  0  0  0  0  0
  -38.4447   53.5972   57.1348 C   0  0  0  0  0  0  0  0  0  0  0  0
  -39.5169   54.4152   57.4930 C   0  0  0  0  0  0  0  0  0  0  0  0
  -40.7986   54.1232   57.0590 C   0  0  0  0  0  0  0  0  0  0  0  0
  -41.0327   53.0204   56.2668 C   0  0  0  0  0  0  0  0  0  0  0  0
  -39.9880   52.1910   55.9014 C   0  0  0  0  0  0  0  0  0  0  0  0
  -38.6932   52.4667   56.3295 C   0  0  0  0  0  0  0  0  0  0  0  0
  -32.2521   56.5942   61.9423 C   0  0  0  0  0  0  0  0  0  0  0  0
  -29.8822   56.8885   61.6059 C   0  0  2  0  0  0  0  0  0  0  0  0
  -29.4293   57.2223   63.0049 C   0  0  0  0  0  0  0  0  0  0  0  0
  -29.0797   57.6226   60.5492 C   0  0  0  0  0  0  0  0  0  0  0  0
  -27.6155   57.2433   60.5514 C   0  0  0  0  0  0  0  0  0  0  0  0
  -25.3959   57.7238   61.4387 C   0  0  1  0  0  0  0  0  0  0  0  0
  -25.1129   56.2334   61.2195 C   0  0  0  0  0  0  0  0  0  0  0  0
  -23.7540   55.7854   61.7468 C   0  0  0  0  0  0  0  0  0  0  0  0
  -22.5537   56.4494   61.1017 C   0  0  0  0  0  0  0  0  0  0  0  0
  -22.4628   57.9407   61.3487 C   0  0  0  0  0  0  0  0  0  0  0  0
  -24.6835   58.5389   60.3710 C   0  0  0  0  0  0  0  0  0  0  0  0
  -38.9572   59.5804   63.0882 H   0  0  0  0  0  0  0  0  0  0  0  0
  -34.1141   61.2899   56.6192 H   0  0  0  0  0  0  0  0  0  0  0  0
  -35.7508   61.5269   56.0551 H   0  0  0  0  0  0  0  0  0  0  0  0
  -34.4840   61.1297   54.9190 H   0  0  0  0  0  0  0  0  0  0  0  0
  -35.4853   59.3567   57.1099 H   0  0  0  0  0  0  0  0  0  0  0  0
  -34.2170   58.9759   55.9278 H   0  0  0  0  0  0  0  0  0  0  0  0
  -33.5369   54.7066   60.7968 H   0  0  0  0  0  0  0  0  0  0  0  0
  -36.3034   57.9144   55.3574 H   0  0  0  0  0  0  0  0  0  0  0  0
  -35.7919   59.1353   54.1610 H   0  0  0  0  0  0  0  0  0  0  0  0
  -37.3935   60.6753   55.0012 H   0  0  0  0  0  0  0  0  0  0  0  0
  -37.8973   59.4810   56.2162 H   0  0  0  0  0  0  0  0  0  0  0  0
  -27.2130   58.7233   61.8475 H   0  0  0  0  0  0  0  0  0  0  0  0
  -36.8217   51.7718   56.2249 H   0  0  0  0  0  0  0  0  0  0  0  0
  -38.6858   58.0240   54.4954 H   0  0  0  0  0  0  0  0  0  0  0  0
  -38.1672   59.2108   53.2739 H   0  0  0  0  0  0  0  0  0  0  0  0
  -22.9803   59.5007   60.0517 H   0  0  0  0  0  0  0  0  0  0  0  0
  -39.7696   60.7782   54.0747 H   0  0  0  0  0  0  0  0  0  0  0  0
  -40.2808   59.6005   55.3115 H   0  0  0  0  0  0  0  0  0  0  0  0
  -41.0855   58.1340   53.6258 H   0  0  0  0  0  0  0  0  0  0  0  0
  -40.5594   59.2962   52.3816 H   0  0  0  0  0  0  0  0  0  0  0  0
  -42.9456   59.3809   52.7250 H   0  0  0  0  0  0  0  0  0  0  0  0
  -42.1243   60.8893   53.1728 H   0  0  0  0  0  0  0  0  0  0  0  0
  -42.2839   60.3187   55.4870 H   0  0  0  0  0  0  0  0  0  0  0  0
  -43.0840   58.7995   55.0521 H   0  0  0  0  0  0  0  0  0  0  0  0
  -44.9304   60.0087   54.1333 H   0  0  0  0  0  0  0  0  0  0  0  0
  -44.1155   61.5354   54.5652 H   0  0  0  0  0  0  0  0  0  0  0  0
  -45.0976   59.4984   56.4934 H   0  0  0  0  0  0  0  0  0  0  0  0
  -45.8827   61.0350   56.0813 H   0  0  0  0  0  0  0  0  0  0  0  0
  -44.0125   62.2485   56.9375 H   0  0  0  0  0  0  0  0  0  0  0  0
  -43.2147   60.7112   57.3366 H   0  0  0  0  0  0  0  0  0  0  0  0
  -44.9200   60.2084   58.9281 H   0  0  0  0  0  0  0  0  0  0  0  0
  -45.7353   61.7338   58.5210 H   0  0  0  0  0  0  0  0  0  0  0  0
  -43.8855   62.9774   59.3612 H   0  0  0  0  0  0  0  0  0  0  0  0
  -43.0606   61.4463   59.7572 H   0  0  0  0  0  0  0  0  0  0  0  0
  -45.5834   62.4187   60.9953 H   0  0  0  0  0  0  0  0  0  0  0  0
  -43.9553   62.4750   61.7071 H   0  0  0  0  0  0  0  0  0  0  0  0
  -45.4407   60.0006   60.9765 H   0  0  0  0  0  0  0  0  0  0  0  0
  -45.2255   60.6758   62.6088 H   0  0  0  0  0  0  0  0  0  0  0  0
  -43.0284   59.6886   60.8476 H   0  0  0  0  0  0  0  0  0  0  0  0
  -43.7307   58.8283   62.2178 H   0  0  0  0  0  0  0  0  0  0  0  0
  -42.9998   61.0480   63.4839 H   0  0  0  0  0  0  0  0  0  0  0  0
  -40.7397   61.0007   63.4520 H   0  0  0  0  0  0  0  0  0  0  0  0
  -38.0148   59.3748   60.4627 H   0  0  0  0  0  0  0  0  0  0  0  0
  -38.6554   57.8106   60.9484 H   0  0  0  0  0  0  0  0  0  0  0  0
  -37.1937   57.7896   62.8603 H   0  0  0  0  0  0  0  0  0  0  0  0
  -36.5565   59.3772   62.3453 H   0  0  0  0  0  0  0  0  0  0  0  0
  -35.6238   58.4067   60.3945 H   0  0  0  0  0  0  0  0  0  0  0  0
  -36.2729   56.8255   60.8717 H   0  0  0  0  0  0  0  0  0  0  0  0
  -34.8590   56.8018   62.8091 H   0  0  0  0  0  0  0  0  0  0  0  0
  -34.2203   58.3886   62.3599 H   0  0  0  0  0  0  0  0  0  0  0  0
  -33.3097   57.4574   60.3310 H   0  0  0  0  0  0  0  0  0  0  0  0
  -35.5970   53.3478   61.1948 H   0  0  0  0  0  0  0  0  0  0  0  0
  -34.1063   53.0005   60.3520 H   0  0  0  0  0  0  0  0  0  0  0  0
  -35.5678   52.1393   59.9331 H   0  0  0  0  0  0  0  0  0  0  0  0
  -34.4301   54.6713   57.4158 H   0  0  0  0  0  0  0  0  0  0  0  0
  -34.1658   53.0497   57.8893 H   0  0  0  0  0  0  0  0  0  0  0  0
  -39.3533   55.2440   58.0858 H   0  0  0  0  0  0  0  0  0  0  0  0
  -41.5837   54.7354   57.3305 H   0  0  0  0  0  0  0  0  0  0  0  0
  -41.9909   52.8126   55.9450 H   0  0  0  0  0  0  0  0  0  0  0  0
  -40.1695   51.3653   55.3096 H   0  0  0  0  0  0  0  0  0  0  0  0
  -29.7674   55.8325   61.4775 H   0  0  0  0  0  0  0  0  0  0  0  0
  -29.5300   58.2745   63.1709 H   0  0  0  0  0  0  0  0  0  0  0  0
  -28.4046   56.9387   63.1252 H   0  0  0  0  0  0  0  0  0  0  0  0
  -30.0319   56.6905   63.7113 H   0  0  0  0  0  0  0  0  0  0  0  0
  -29.1600   58.6743   60.7291 H   0  0  0  0  0  0  0  0  0  0  0  0
  -29.4802   57.3496   59.5953 H   0  0  0  0  0  0  0  0  0  0  0  0
  -25.0482   57.9975   62.4130 H   0  0  0  0  0  0  0  0  0  0  0  0
  -25.1509   56.0329   60.1691 H   0  0  0  0  0  0  0  0  0  0  0  0
  -25.8556   55.6897   61.7651 H   0  0  0  0  0  0  0  0  0  0  0  0
  -23.6710   54.7302   61.5902 H   0  0  0  0  0  0  0  0  0  0  0  0
  -23.7297   56.0711   62.7776 H   0  0  0  0  0  0  0  0  0  0  0  0
  -22.6075   56.2867   60.0455 H   0  0  0  0  0  0  0  0  0  0  0  0
  -21.6842   56.0105   61.5447 H   0  0  0  0  0  0  0  0  0  0  0  0
  -22.6865   58.1247   62.3788 H   0  0  0  0  0  0  0  0  0  0  0  0
  -21.4701   58.2374   61.0815 H   0  0  0  0  0  0  0  0  0  0  0  0
  1 33  1  0  0  0  0
  1 34  1  0  0  0  0
  1 61  1  0  0  0  0
  2  4  1  0  0  0  0
  2 62  1  0  0  0  0
  2 63  1  0  0  0  0
  2 64  1  0  0  0  0
  3 33  2  0  0  0  0
  4  7  1  0  0  0  0
  4 65  1  0  0  0  0
  4 66  1  0  0  0  0
  5 38  1  0  0  0  0
  5 39  1  0  0  0  0
  5 67  1  0  0  0  0
  6 39  2  0  0  0  0
  7 10  1  0  0  0  0
  7 68  1  0  0  0  0
  7 69  1  0  0  0  0
  8 40  1  0  0  0  0
  8 43  2  0  0  0  0
  9 42  1  0  0  0  0
  9 43  1  0  0  0  0
 10 13  1  0  0  0  0
 10 70  1  0  0  0  0
 10 71  1  0  0  0  0
 11 54  1  0  0  0  0
 11 55  1  0  0  0  0
 11 72  1  0  0  0  0
 12 49  1  0  0  0  0
 12 73  1  0  0  0  0
 13 16  1  0  0  0  0
 13 74  1  0  0  0  0
 13 75  1  0  0  0  0
 14 59  1  0  0  0  0
 14 60  1  0  0  0  0
 14 76  1  0  0  0  0
 15 50  2  0  0  0  0
 16 18  1  0  0  0  0
 16 77  1  0  0  0  0
 16 78  1  0  0  0  0
 17 50  1  0  0  0  0
 17 51  1  0  0  0  0
 18 20  1  0  0  0  0
 18 79  1  0  0  0  0
 18 80  1  0  0  0  0
 19 54  2  0  0  0  0
 20 22  1  0  0  0  0
 20 81  1  0  0  0  0
 20 82  1  0  0  0  0
 21 60  2  0  0  0  0
 22 23  1  0  0  0  0
 22 83  1  0  0  0  0
 22 84  1  0  0  0  0
 23 24  1  0  0  0  0
 23 85  1  0  0  0  0
 23 86  1  0  0  0  0
 24 25  1  0  0  0  0
 24 87  1  0  0  0  0
 24 88  1  0  0  0  0
 25 26  1  0  0  0  0
 25 89  1  0  0  0  0
 25 90  1  0  0  0  0
 26 27  1  0  0  0  0
 26 91  1  0  0  0  0
 26 92  1  0  0  0  0
 27 28  1  0  0  0  0
 27 93  1  0  0  0  0
 27 94  1  0  0  0  0
 28 29  1  0  0  0  0
 28 95  1  0  0  0  0
 28 96  1  0  0  0  0
 29 30  1  0  0  0  0
 29 97  1  0  0  0  0
 29 98  1  0  0  0  0
 30 31  1  0  0  0  0
 30 99  1  0  0  0  0
 30100  1  0  0  0  0
 31 32  2  0  0  0  0
 31101  1  0  0  0  0
 32 33  1  0  0  0  0
 32102  1  0  0  0  0
 34 35  1  0  0  0  0
 34103  1  0  0  0  0
 34104  1  0  0  0  0
 35 36  1  0  0  0  0
 35105  1  0  0  0  0
 35106  1  0  0  0  0
 36 37  1  0  0  0  0
 36107  1  0  0  0  0
 36108  1  0  0  0  0
 37 38  1  0  0  0  0
 37109  1  0  0  0  0
 37110  1  0  0  0  0
 38 50  1  0  0  0  0
 38111  1  6  0  0  0
 40 39  1  1  0  0  0
 40 41  1  0  0  0  0
 40 42  1  0  0  0  0
 41112  1  0  0  0  0
 41113  1  0  0  0  0
 41114  1  0  0  0  0
 42115  1  0  0  0  0
 42116  1  0  0  0  0
 43 44  1  0  0  0  0
 44 45  2  0  0  0  0
 44 49  1  0  0  0  0
 45 46  1  0  0  0  0
 45117  1  0  0  0  0
 46 47  2  0  0  0  0
 46118  1  0  0  0  0
 47 48  1  0  0  0  0
 47119  1  0  0  0  0
 48 49  2  0  0  0  0
 48120  1  0  0  0  0
 51 52  1  0  0  0  0
 51 53  1  0  0  0  0
 51121  1  6  0  0  0
 52122  1  0  0  0  0
 52123  1  0  0  0  0
 52124  1  0  0  0  0
 53 54  1  0  0  0  0
 53125  1  0  0  0  0
 53126  1  0  0  0  0
 55 56  1  0  0  0  0
 55 60  1  0  0  0  0
 55127  1  1  0  0  0
 56 57  1  0  0  0  0
 56128  1  0  0  0  0
 56129  1  0  0  0  0
 57 58  1  0  0  0  0
 57130  1  0  0  0  0
 57131  1  0  0  0  0
 58 59  1  0  0  0  0
 58132  1  0  0  0  0
 58133  1  0  0  0  0
 59134  1  0  0  0  0
 59135  1  0  0  0  0
M  END
$$$$