/media/chris/experiments/cd1a-new-docking/inputs/ligands/7ryo_ligand.pdb
 OpenBabel07032304133D

135137  0  0  1  0  0  0  0  0999 V2000
  -39.2043   59.3899   62.1545 N   0  0  0  0  0  0  0  0  0  0  0  0
  -38.8648   55.7206   70.7892 C   0  0  0  0  0  0  0  0  0  0  0  0
  -41.2354   59.4271   63.1378 O   0  0  0  0  0  0  0  0  0  0  0  0
  -38.6392   57.1961   70.5881 C   0  0  0  0  0  0  0  0  0  0  0  0
  -35.8432   57.0722   64.0991 N   0  0  0  0  0  0  0  0  0  0  0  0
  -37.8403   56.8763   65.1126 O   0  0  0  0  0  0  0  0  0  0  0  0
  -39.9254   58.0019   70.5724 C   0  0  0  0  0  0  0  0  0  0  0  0
  -37.1743   55.2470   62.2034 N   0  0  0  0  0  0  0  0  0  0  0  0
  -35.7311   53.5708   62.6401 O   0  0  0  0  0  0  0  0  0  0  0  0
  -39.7306   59.4937   70.3541 C   0  0  0  0  0  0  0  0  0  0  0  0
  -34.7593   55.9183   68.4226 N   0  0  0  0  0  0  0  0  0  0  0  0
  -38.0705   55.1777   59.5848 O   0  0  0  0  0  0  0  0  0  0  0  0
  -41.0333   60.2818   70.3595 C   0  0  0  0  0  0  0  0  0  0  0  0
  -35.5093   59.3047   69.4539 N   0  0  0  0  0  0  0  0  0  0  0  0
  -32.6028   55.6969   63.3558 O   0  0  0  0  0  0  0  0  0  0  0  0
  -42.0249   59.8416   69.2936 C   0  0  0  0  0  0  0  0  0  0  0  0
  -33.6699   56.4264   65.2023 O   0  0  0  0  0  0  0  0  0  0  0  0
  -42.4710   58.3950   69.4166 C   0  0  0  0  0  0  0  0  0  0  0  0
  -32.8792   54.7257   68.0990 O   0  0  0  0  0  0  0  0  0  0  0  0
  -43.4489   57.9521   68.3406 C   0  0  0  0  0  0  0  0  0  0  0  0
  -34.8435   57.4753   70.5678 O   0  0  0  0  0  0  0  0  0  0  0  0
  -42.8813   58.0542   66.9387 C   0  0  0  0  0  0  0  0  0  0  0  0
  -43.8718   57.6259   65.8731 C   0  0  0  0  0  0  0  0  0  0  0  0
  -45.1418   58.4519   65.8316 C   0  0  0  0  0  0  0  0  0  0  0  0
  -44.8885   59.9184   65.5419 C   0  0  0  0  0  0  0  0  0  0  0  0
  -44.2200   60.1653   64.1997 C   0  0  0  0  0  0  0  0  0  0  0  0
  -45.0377   59.6774   63.0186 C   0  0  0  0  0  0  0  0  0  0  0  0
  -44.3803   59.8989   61.6665 C   0  0  0  0  0  0  0  0  0  0  0  0
  -43.0483   59.1851   61.5140 C   0  0  0  0  0  0  0  0  0  0  0  0
  -43.1435   57.6700   61.6451 C   0  0  0  0  0  0  0  0  0  0  0  0
  -41.8043   57.0164   61.5041 C   0  0  0  0  0  0  0  0  0  0  0  0
  -40.6183   57.5180   61.8209 C   0  0  0  0  0  0  0  0  0  0  0  0
  -40.4050   58.8589   62.4098 C   0  0  0  0  0  0  0  0  0  0  0  0
  -38.2360   58.7337   61.2903 C   0  0  0  0  0  0  0  0  0  0  0  0
  -36.9560   58.4330   62.0390 C   0  0  0  0  0  0  0  0  0  0  0  0
  -35.8780   57.7610   61.2090 C   0  0  0  0  0  0  0  0  0  0  0  0
  -34.6110   57.4590   62.0020 C   0  0  0  0  0  0  0  0  0  0  0  0
  -34.8704   56.5130   63.1754 C   0  0  1  0  0  0  0  0  0  0  0  0
  -36.9896   56.4367   64.3534 C   0  0  0  0  0  0  0  0  0  0  0  0
  -37.2183   55.0807   63.6655 C   0  0  1  0  0  0  0  0  0  0  0  0
  -38.5921   54.5503   64.0644 C   0  0  0  0  0  0  0  0  0  0  0  0
  -36.1095   54.0575   63.9528 C   0  0  0  0  0  0  0  0  0  0  0  0
  -36.3485   54.3951   61.7542 C   0  0  0  0  0  0  0  0  0  0  0  0
  -35.9883   54.1992   60.3479 C   0  0  0  0  0  0  0  0  0  0  0  0
  -34.7126   53.7475   60.0078 C   0  0  0  0  0  0  0  0  0  0  0  0
  -34.2796   53.7903   58.6937 C   0  0  0  0  0  0  0  0  0  0  0  0
  -35.1032   54.2796   57.7033 C   0  0  0  0  0  0  0  0  0  0  0  0
  -36.3705   54.7377   58.0145 C   0  0  0  0  0  0  0  0  0  0  0  0
  -36.8228   54.7048   59.3299 C   0  0  0  0  0  0  0  0  0  0  0  0
  -33.5727   56.1622   63.8877 C   0  0  0  0  0  0  0  0  0  0  0  0
  -32.4457   56.7746   65.9301 C   0  0  2  0  0  0  0  0  0  0  0  0
  -31.4800   55.6241   65.7982 C   0  0  0  0  0  0  0  0  0  0  0  0
  -32.8765   57.0046   67.3657 C   0  0  0  0  0  0  0  0  0  0  0  0
  -33.5002   55.7800   67.9975 C   0  0  0  0  0  0  0  0  0  0  0  0
  -35.4840   57.1691   68.2808 C   0  0  1  0  0  0  0  0  0  0  0  0
  -36.9832   56.8939   68.1192 C   0  0  0  0  0  0  0  0  0  0  0  0
  -37.7583   58.0635   67.5222 C   0  0  0  0  0  0  0  0  0  0  0  0
  -37.7415   59.3407   68.3384 C   0  0  0  0  0  0  0  0  0  0  0  0
  -36.3704   59.9677   68.4806 C   0  0  0  0  0  0  0  0  0  0  0  0
  -35.2514   57.9974   69.5345 C   0  0  0  0  0  0  0  0  0  0  0  0
  -38.9683   60.2531   62.5648 H   0  0  0  0  0  0  0  0  0  0  0  0
  -37.9231   55.2126   70.7903 H   0  0  0  0  0  0  0  0  0  0  0  0
  -39.4736   55.3414   69.9952 H   0  0  0  0  0  0  0  0  0  0  0  0
  -39.3580   55.5595   71.7250 H   0  0  0  0  0  0  0  0  0  0  0  0
  -38.1372   57.3390   69.6540 H   0  0  0  0  0  0  0  0  0  0  0  0
  -38.0565   57.5440   71.4153 H   0  0  0  0  0  0  0  0  0  0  0  0
  -35.6545   57.9305   64.5430 H   0  0  0  0  0  0  0  0  0  0  0  0
  -40.4185   57.8630   71.5118 H   0  0  0  0  0  0  0  0  0  0  0  0
  -40.4989   57.6447   69.7427 H   0  0  0  0  0  0  0  0  0  0  0  0
  -39.2510   59.6381   69.4086 H   0  0  0  0  0  0  0  0  0  0  0  0
  -39.1388   59.8570   71.1681 H   0  0  0  0  0  0  0  0  0  0  0  0
  -35.2088   55.1504   68.8440 H   0  0  0  0  0  0  0  0  0  0  0  0
  -38.4048   55.1695   60.4601 H   0  0  0  0  0  0  0  0  0  0  0  0
  -40.8029   61.3144   70.1993 H   0  0  0  0  0  0  0  0  0  0  0  0
  -41.4981   60.1066   71.3072 H   0  0  0  0  0  0  0  0  0  0  0  0
  -35.0726   59.8819   70.1213 H   0  0  0  0  0  0  0  0  0  0  0  0
  -41.5667   59.9710   68.3354 H   0  0  0  0  0  0  0  0  0  0  0  0
  -42.8997   60.4446   69.4201 H   0  0  0  0  0  0  0  0  0  0  0  0
  -42.9405   58.2683   70.3698 H   0  0  0  0  0  0  0  0  0  0  0  0
  -41.5945   57.7917   69.3034 H   0  0  0  0  0  0  0  0  0  0  0  0
  -44.3216   58.5684   68.3999 H   0  0  0  0  0  0  0  0  0  0  0  0
  -43.6719   56.9209   68.5189 H   0  0  0  0  0  0  0  0  0  0  0  0
  -42.0162   57.4280   66.8733 H   0  0  0  0  0  0  0  0  0  0  0  0
  -42.6407   59.0817   66.7617 H   0  0  0  0  0  0  0  0  0  0  0  0
  -44.1411   56.6067   66.0565 H   0  0  0  0  0  0  0  0  0  0  0  0
  -43.3857   57.7652   64.9301 H   0  0  0  0  0  0  0  0  0  0  0  0
  -45.6313   58.3716   66.7797 H   0  0  0  0  0  0  0  0  0  0  0  0
  -45.7454   58.0691   65.0353 H   0  0  0  0  0  0  0  0  0  0  0  0
  -44.2577   60.3114   66.3117 H   0  0  0  0  0  0  0  0  0  0  0  0
  -45.8424   60.4022   65.5119 H   0  0  0  0  0  0  0  0  0  0  0  0
  -43.2778   59.6583   64.1920 H   0  0  0  0  0  0  0  0  0  0  0  0
  -44.1113   61.2243   64.0918 H   0  0  0  0  0  0  0  0  0  0  0  0
  -45.9748   60.1939   63.0239 H   0  0  0  0  0  0  0  0  0  0  0  0
  -45.1444   58.6193   63.1369 H   0  0  0  0  0  0  0  0  0  0  0  0
  -44.2184   60.9487   61.5371 H   0  0  0  0  0  0  0  0  0  0  0  0
  -45.0395   59.4947   60.9270 H   0  0  0  0  0  0  0  0  0  0  0  0
  -42.3828   59.5479   62.2692 H   0  0  0  0  0  0  0  0  0  0  0  0
  -42.6963   59.3907   60.5246 H   0  0  0  0  0  0  0  0  0  0  0  0
  -43.7937   57.2962   60.8820 H   0  0  0  0  0  0  0  0  0  0  0  0
  -43.5244   57.4429   62.6189 H   0  0  0  0  0  0  0  0  0  0  0  0
  -41.8039   56.0610   61.1138 H   0  0  0  0  0  0  0  0  0  0  0  0
  -39.7866   56.9330   61.6446 H   0  0  0  0  0  0  0  0  0  0  0  0
  -38.0148   59.3748   60.4627 H   0  0  0  0  0  0  0  0  0  0  0  0
  -38.6554   57.8106   60.9484 H   0  0  0  0  0  0  0  0  0  0  0  0
  -37.1937   57.7896   62.8603 H   0  0  0  0  0  0  0  0  0  0  0  0
  -36.5565   59.3772   62.3453 H   0  0  0  0  0  0  0  0  0  0  0  0
  -35.6238   58.4067   60.3945 H   0  0  0  0  0  0  0  0  0  0  0  0
  -36.2729   56.8255   60.8717 H   0  0  0  0  0  0  0  0  0  0  0  0
  -34.2161   58.3779   62.3821 H   0  0  0  0  0  0  0  0  0  0  0  0
  -33.9192   56.9787   61.3420 H   0  0  0  0  0  0  0  0  0  0  0  0
  -35.2841   55.6083   62.7813 H   0  0  0  0  0  0  0  0  0  0  0  0
  -39.3358   55.2891   63.8496 H   0  0  0  0  0  0  0  0  0  0  0  0
  -38.5995   54.3307   65.1115 H   0  0  0  0  0  0  0  0  0  0  0  0
  -38.8047   53.6591   63.5116 H   0  0  0  0  0  0  0  0  0  0  0  0
  -35.2785   54.5240   64.4394 H   0  0  0  0  0  0  0  0  0  0  0  0
  -36.4325   53.2731   64.6050 H   0  0  0  0  0  0  0  0  0  0  0  0
  -34.0873   53.3788   60.7413 H   0  0  0  0  0  0  0  0  0  0  0  0
  -33.3339   53.4536   58.4542 H   0  0  0  0  0  0  0  0  0  0  0  0
  -34.7732   54.3044   56.7258 H   0  0  0  0  0  0  0  0  0  0  0  0
  -36.9824   55.1050   57.2691 H   0  0  0  0  0  0  0  0  0  0  0  0
  -31.9532   57.6481   65.5566 H   0  0  0  0  0  0  0  0  0  0  0  0
  -31.9393   54.7293   66.1633 H   0  0  0  0  0  0  0  0  0  0  0  0
  -30.5987   55.8310   66.3687 H   0  0  0  0  0  0  0  0  0  0  0  0
  -31.2167   55.4956   64.7691 H   0  0  0  0  0  0  0  0  0  0  0  0
  -33.5920   57.7999   67.3840 H   0  0  0  0  0  0  0  0  0  0  0  0
  -31.9991   57.2445   67.9292 H   0  0  0  0  0  0  0  0  0  0  0  0
  -35.1383   57.6946   67.4152 H   0  0  0  0  0  0  0  0  0  0  0  0
  -37.3924   56.6739   69.0831 H   0  0  0  0  0  0  0  0  0  0  0  0
  -37.0799   56.0737   67.4389 H   0  0  0  0  0  0  0  0  0  0  0  0
  -38.7776   57.7591   67.4068 H   0  0  0  0  0  0  0  0  0  0  0  0
  -37.2717   58.2981   66.5986 H   0  0  0  0  0  0  0  0  0  0  0  0
  -38.1122   59.1184   69.3172 H   0  0  0  0  0  0  0  0  0  0  0  0
  -38.3507   60.0481   67.8155 H   0  0  0  0  0  0  0  0  0  0  0  0
  -35.8861   59.9359   67.5270 H   0  0  0  0  0  0  0  0  0  0  0  0
  -36.5233   60.9660   68.8340 H   0  0  0  0  0  0  0  0  0  0  0  0
  1 33  1  0  0  0  0
  1 34  1  0  0  0  0
  1 61  1  0  0  0  0
  2  4  1  0  0  0  0
  2 62  1  0  0  0  0
  2 63  1  0  0  0  0
  2 64  1  0  0  0  0
  3 33  2  0  0  0  0
  4  7  1  0  0  0  0
  4 65  1  0  0  0  0
  4 66  1  0  0  0  0
  5 38  1  0  0  0  0
  5 39  1  0  0  0  0
  5 67  1  0  0  0  0
  6 39  2  0  0  0  0
  7 10  1  0  0  0  0
  7 68  1  0  0  0  0
  7 69  1  0  0  0  0
  8 40  1  0  0  0  0
  8 43  2  0  0  0  0
  9 42  1  0  0  0  0
  9 43  1  0  0  0  0
 10 13  1  0  0  0  0
 10 70  1  0  0  0  0
 10 71  1  0  0  0  0
 11 54  1  0  0  0  0
 11 55  1  0  0  0  0
 11 72  1  0  0  0  0
 12 49  1  0  0  0  0
 12 73  1  0  0  0  0
 13 16  1  0  0  0  0
 13 74  1  0  0  0  0
 13 75  1  0  0  0  0
 14 59  1  0  0  0  0
 14 60  1  0  0  0  0
 14 76  1  0  0  0  0
 15 50  2  0  0  0  0
 16 18  1  0  0  0  0
 16 77  1  0  0  0  0
 16 78  1  0  0  0  0
 17 50  1  0  0  0  0
 17 51  1  0  0  0  0
 18 20  1  0  0  0  0
 18 79  1  0  0  0  0
 18 80  1  0  0  0  0
 19 54  2  0  0  0  0
 20 22  1  0  0  0  0
 20 81  1  0  0  0  0
 20 82  1  0  0  0  0
 21 60  2  0  0  0  0
 22 23  1  0  0  0  0
 22 83  1  0  0  0  0
 22 84  1  0  0  0  0
 23 24  1  0  0  0  0
 23 85  1  0  0  0  0
 23 86  1  0  0  0  0
 24 25  1  0  0  0  0
 24 87  1  0  0  0  0
 24 88  1  0  0  0  0
 25 26  1  0  0  0  0
 25 89  1  0  0  0  0
 25 90  1  0  0  0  0
 26 27  1  0  0  0  0
 26 91  1  0  0  0  0
 26 92  1  0  0  0  0
 27 28  1  0  0  0  0
 27 93  1  0  0  0  0
 27 94  1  0  0  0  0
 28 29  1  0  0  0  0
 28 95  1  0  0  0  0
 28 96  1  0  0  0  0
 29 30  1  0  0  0  0
 29 97  1  0  0  0  0
 29 98  1  0  0  0  0
 30 31  1  0  0  0  0
 30 99  1  0  0  0  0
 30100  1  0  0  0  0
 31 32  2  0  0  0  0
 31101  1  0  0  0  0
 32 33  1  0  0  0  0
 32102  1  0  0  0  0
 34 35  1  0  0  0  0
 34103  1  0  0  0  0
 34104  1  0  0  0  0
 35 36  1  0  0  0  0
 35105  1  0  0  0  0
 35106  1  0  0  0  0
 36 37  1  0  0  0  0
 36107  1  0  0  0  0
 36108  1  0  0  0  0
 37 38  1  0  0  0  0
 37109  1  0  0  0  0
 37110  1  0  0  0  0
 38 50  1  0  0  0  0
 38111  1  6  0  0  0
 40 39  1  1  0  0  0
 40 41  1  0  0  0  0
 40 42  1  0  0  0  0
 41112  1  0  0  0  0
 41113  1  0  0  0  0
 41114  1  0  0  0  0
 42115  1  0  0  0  0
 42116  1  0  0  0  0
 43 44  1  0  0  0  0
 44 45  2  0  0  0  0
 44 49  1  0  0  0  0
 45 46  1  0  0  0  0
 45117  1  0  0  0  0
 46 47  2  0  0  0  0
 46118  1  0  0  0  0
 47 48  1  0  0  0  0
 47119  1  0  0  0  0
 48 49  2  0  0  0  0
 48120  1  0  0  0  0
 51 52  1  0  0  0  0
 51 53  1  0  0  0  0
 51121  1  6  0  0  0
 52122  1  0  0  0  0
 52123  1  0  0  0  0
 52124  1  0  0  0  0
 53 54  1  0  0  0  0
 53125  1  0  0  0  0
 53126  1  0  0  0  0
 55 56  1  0  0  0  0
 55 60  1  0  0  0  0
 55127  1  6  0  0  0
 56 57  1  0  0  0  0
 56128  1  0  0  0  0
 56129  1  0  0  0  0
 57 58  1  0  0  0  0
 57130  1  0  0  0  0
 57131  1  0  0  0  0
 58 59  1  0  0  0  0
 58132  1  0  0  0  0
 58133  1  0  0  0  0
 59134  1  0  0  0  0
 59135  1  0  0  0  0
M  END
$$$$