/media/chris/experiments/cd1a-new-docking/inputs/ligands/7ryo_ligand.pdb
 OpenBabel07032304133D

135137  0  0  1  0  0  0  0  0999 V2000
  -37.6438   60.3330   63.4177 N   0  0  0  0  0  0  0  0  0  0  0  0
  -25.9054   67.2130   72.2569 C   0  0  0  0  0  0  0  0  0  0  0  0
  -37.6996   58.6136   64.8787 O   0  0  0  0  0  0  0  0  0  0  0  0
  -26.7321   65.9570   72.3445 C   0  0  0  0  0  0  0  0  0  0  0  0
  -33.6519   56.2542   63.9242 N   0  0  0  0  0  0  0  0  0  0  0  0
  -34.6659   54.8731   65.3795 O   0  0  0  0  0  0  0  0  0  0  0  0
  -28.2081   66.2265   72.5742 C   0  0  0  0  0  0  0  0  0  0  0  0
  -32.2911   53.8912   66.3251 N   0  0  0  0  0  0  0  0  0  0  0  0
  -30.3679   54.0724   65.1625 O   0  0  0  0  0  0  0  0  0  0  0  0
  -28.8774   67.0392   71.4775 C   0  0  0  0  0  0  0  0  0  0  0  0
  -39.9508   51.9593   65.0212 N   0  0  0  0  0  0  0  0  0  0  0  0
  -28.4351   52.7434   66.4568 O   0  0  0  0  0  0  0  0  0  0  0  0
  -28.8304   66.3679   70.1118 C   0  0  0  0  0  0  0  0  0  0  0  0
  -43.0949   51.1343   63.4314 N   0  0  0  0  0  0  0  0  0  0  0  0
  -35.2785   54.6862   61.6466 O   0  0  0  0  0  0  0  0  0  0  0  0
  -29.5299   65.0182   70.0636 C   0  0  0  0  0  0  0  0  0  0  0  0
  -36.3849   54.7593   63.6090 O   0  0  0  0  0  0  0  0  0  0  0  0
  -31.0111   65.0717   70.3951 C   0  0  0  0  0  0  0  0  0  0  0  0
  -40.1833   52.9573   63.0183 O   0  0  0  0  0  0  0  0  0  0  0  0
  -31.7047   63.7196   70.3630 C   0  0  0  0  0  0  0  0  0  0  0  0
  -42.0373   53.0733   63.8217 O   0  0  0  0  0  0  0  0  0  0  0  0
  -31.6166   63.0347   69.0134 C   0  0  0  0  0  0  0  0  0  0  0  0
  -32.3267   61.6948   68.9890 C   0  0  0  0  0  0  0  0  0  0  0  0
  -32.2475   60.9693   67.6608 C   0  0  0  0  0  0  0  0  0  0  0  0
  -32.9806   59.6422   67.6632 C   0  0  0  0  0  0  0  0  0  0  0  0
  -34.4678   59.7709   67.9479 C   0  0  0  0  0  0  0  0  0  0  0  0
  -35.1968   58.4405   67.9667 C   0  0  0  0  0  0  0  0  0  0  0  0
  -36.6891   58.5469   68.2330 C   0  0  0  0  0  0  0  0  0  0  0  0
  -37.4357   59.3627   67.1919 C   0  0  0  0  0  0  0  0  0  0  0  0
  -38.9300   59.4870   67.4631 C   0  0  0  0  0  0  0  0  0  0  0  0
  -39.6215   60.2842   66.4016 C   0  0  0  0  0  0  0  0  0  0  0  0
  -39.2878   60.3961   65.1230 C   0  0  0  0  0  0  0  0  0  0  0  0
  -38.1377   59.7099   64.4932 C   0  0  0  0  0  0  0  0  0  0  0  0
  -36.5610   59.7701   62.6268 C   0  0  0  0  0  0  0  0  0  0  0  0
  -36.9560   58.4330   62.0390 C   0  0  0  0  0  0  0  0  0  0  0  0
  -35.8780   57.7610   61.2090 C   0  0  0  0  0  0  0  0  0  0  0  0
  -34.6110   57.4590   62.0020 C   0  0  0  0  0  0  0  0  0  0  0  0
  -34.8704   56.5130   63.1754 C   0  0  1  0  0  0  0  0  0  0  0  0
  -33.6588   55.4398   64.9822 C   0  0  0  0  0  0  0  0  0  0  0  0
  -32.3321   55.2384   65.7328 C   0  0  1  0  0  0  0  0  0  0  0  0
  -32.2337   56.2749   66.8481 C   0  0  0  0  0  0  0  0  0  0  0  0
  -31.1015   55.2741   64.8146 C   0  0  0  0  0  0  0  0  0  0  0  0
  -31.2031   53.3529   65.9565 C   0  0  0  0  0  0  0  0  0  0  0  0
  -30.7404   52.0091   66.3112 C   0  0  0  0  0  0  0  0  0  0  0  0
  -31.6640   50.9933   66.5610 C   0  0  0  0  0  0  0  0  0  0  0  0
  -31.2572   49.7983   67.1290 C   0  0  0  0  0  0  0  0  0  0  0  0
  -29.9339   49.5957   67.4552 C   0  0  0  0  0  0  0  0  0  0  0  0
  -28.9993   50.5881   67.2220 C   0  0  0  0  0  0  0  0  0  0  0  0
  -29.3892   51.7968   66.6539 C   0  0  0  0  0  0  0  0  0  0  0  0
  -35.5090   55.2173   62.6978 C   0  0  0  0  0  0  0  0  0  0  0  0
  -37.5436   53.9976   63.1325 C   0  0  2  0  0  0  0  0  0  0  0  0
  -38.3287   54.8787   62.1939 C   0  0  0  0  0  0  0  0  0  0  0  0
  -38.3312   53.6334   64.3762 C   0  0  0  0  0  0  0  0  0  0  0  0
  -39.5694   52.8195   64.0727 C   0  0  0  0  0  0  0  0  0  0  0  0
  -41.1274   51.1214   64.8689 C   0  0  1  0  0  0  0  0  0  0  0  0
  -41.7545   50.8398   66.2390 C   0  0  0  0  0  0  0  0  0  0  0  0
  -42.6914   49.6367   66.2465 C   0  0  0  0  0  0  0  0  0  0  0  0
  -43.9038   49.7494   65.3436 C   0  0  0  0  0  0  0  0  0  0  0  0
  -43.5728   49.8268   63.8679 C   0  0  0  0  0  0  0  0  0  0  0  0
  -42.1274   51.8614   63.9946 C   0  0  0  0  0  0  0  0  0  0  0  0
  -38.0256   61.2009   63.1530 H   0  0  0  0  0  0  0  0  0  0  0  0
  -24.8797   66.9544   72.0953 H   0  0  0  0  0  0  0  0  0  0  0  0
  -25.9947   67.7632   73.1703 H   0  0  0  0  0  0  0  0  0  0  0  0
  -26.2543   67.8137   71.4431 H   0  0  0  0  0  0  0  0  0  0  0  0
  -26.3645   65.3640   73.1558 H   0  0  0  0  0  0  0  0  0  0  0  0
  -26.6437   65.4525   71.4050 H   0  0  0  0  0  0  0  0  0  0  0  0
  -32.8109   56.6849   63.6478 H   0  0  0  0  0  0  0  0  0  0  0  0
  -28.3112   66.7600   73.4960 H   0  0  0  0  0  0  0  0  0  0  0  0
  -28.6937   65.2732   72.5867 H   0  0  0  0  0  0  0  0  0  0  0  0
  -28.3831   67.9856   71.4072 H   0  0  0  0  0  0  0  0  0  0  0  0
  -29.9087   67.1398   71.7442 H   0  0  0  0  0  0  0  0  0  0  0  0
  -39.4191   51.8914   65.8471 H   0  0  0  0  0  0  0  0  0  0  0  0
  -28.6650   53.5682   66.0762 H   0  0  0  0  0  0  0  0  0  0  0  0
  -27.8049   66.2256   69.8415 H   0  0  0  0  0  0  0  0  0  0  0  0
  -29.3493   67.0108   69.4319 H   0  0  0  0  0  0  0  0  0  0  0  0
  -43.5319   51.5210   62.6384 H   0  0  0  0  0  0  0  0  0  0  0  0
  -29.0522   64.3676   70.7660 H   0  0  0  0  0  0  0  0  0  0  0  0
  -29.4533   64.6684   69.0553 H   0  0  0  0  0  0  0  0  0  0  0  0
  -31.4912   65.7123   69.6853 H   0  0  0  0  0  0  0  0  0  0  0  0
  -31.0891   65.4340   71.3989 H   0  0  0  0  0  0  0  0  0  0  0  0
  -32.7372   63.8613   70.6056 H   0  0  0  0  0  0  0  0  0  0  0  0
  -31.2077   63.0905   71.0716 H   0  0  0  0  0  0  0  0  0  0  0  0
  -30.5851   62.8798   68.7750 H   0  0  0  0  0  0  0  0  0  0  0  0
  -32.0976   63.6682   68.2977 H   0  0  0  0  0  0  0  0  0  0  0  0
  -33.3585   61.8585   69.2200 H   0  0  0  0  0  0  0  0  0  0  0  0
  -31.8324   61.0738   69.7065 H   0  0  0  0  0  0  0  0  0  0  0  0
  -31.2178   60.7891   67.4321 H   0  0  0  0  0  0  0  0  0  0  0  0
  -32.7175   61.5921   66.9286 H   0  0  0  0  0  0  0  0  0  0  0  0
  -32.5451   59.0162   68.4138 H   0  0  0  0  0  0  0  0  0  0  0  0
  -32.8831   59.2274   66.6817 H   0  0  0  0  0  0  0  0  0  0  0  0
  -34.9058   60.3866   67.1903 H   0  0  0  0  0  0  0  0  0  0  0  0
  -34.5660   60.1979   68.9241 H   0  0  0  0  0  0  0  0  0  0  0  0
  -34.7627   57.8317   68.7321 H   0  0  0  0  0  0  0  0  0  0  0  0
  -35.0900   58.0196   66.9888 H   0  0  0  0  0  0  0  0  0  0  0  0
  -36.8302   59.0073   69.1885 H   0  0  0  0  0  0  0  0  0  0  0  0
  -37.0859   57.5538   68.1973 H   0  0  0  0  0  0  0  0  0  0  0  0
  -37.3037   58.8949   66.2386 H   0  0  0  0  0  0  0  0  0  0  0  0
  -37.0303   60.3525   67.2222 H   0  0  0  0  0  0  0  0  0  0  0  0
  -39.0720   59.9702   68.4072 H   0  0  0  0  0  0  0  0  0  0  0  0
  -39.3508   58.5033   67.4684 H   0  0  0  0  0  0  0  0  0  0  0  0
  -40.4579   60.8097   66.7004 H   0  0  0  0  0  0  0  0  0  0  0  0
  -39.8705   61.0036   64.5259 H   0  0  0  0  0  0  0  0  0  0  0  0
  -35.7032   59.6374   63.2524 H   0  0  0  0  0  0  0  0  0  0  0  0
  -36.3399   60.4428   61.8246 H   0  0  0  0  0  0  0  0  0  0  0  0
  -37.8119   58.5833   61.4147 H   0  0  0  0  0  0  0  0  0  0  0  0
  -37.1476   57.7838   62.8677 H   0  0  0  0  0  0  0  0  0  0  0  0
  -35.6238   58.4067   60.3945 H   0  0  0  0  0  0  0  0  0  0  0  0
  -36.2729   56.8255   60.8717 H   0  0  0  0  0  0  0  0  0  0  0  0
  -34.2161   58.3779   62.3821 H   0  0  0  0  0  0  0  0  0  0  0  0
  -33.9192   56.9787   61.3420 H   0  0  0  0  0  0  0  0  0  0  0  0
  -35.5592   56.9942   63.8379 H   0  0  0  0  0  0  0  0  0  0  0  0
  -33.1065   56.2194   67.4646 H   0  0  0  0  0  0  0  0  0  0  0  0
  -32.1606   57.2530   66.4206 H   0  0  0  0  0  0  0  0  0  0  0  0
  -31.3650   56.0791   67.4413 H   0  0  0  0  0  0  0  0  0  0  0  0
  -31.3943   55.2562   63.7856 H   0  0  0  0  0  0  0  0  0  0  0  0
  -30.5191   56.1628   64.9414 H   0  0  0  0  0  0  0  0  0  0  0  0
  -32.6577   51.1341   66.3205 H   0  0  0  0  0  0  0  0  0  0  0  0
  -31.9494   49.0544   67.3092 H   0  0  0  0  0  0  0  0  0  0  0  0
  -29.6391   48.7002   67.8750 H   0  0  0  0  0  0  0  0  0  0  0  0
  -28.0098   50.4316   67.4702 H   0  0  0  0  0  0  0  0  0  0  0  0
  -37.2867   53.1090   62.5948 H   0  0  0  0  0  0  0  0  0  0  0  0
  -38.6044   55.7810   62.6986 H   0  0  0  0  0  0  0  0  0  0  0  0
  -39.2112   54.3640   61.8759 H   0  0  0  0  0  0  0  0  0  0  0  0
  -37.7275   55.1164   61.3413 H   0  0  0  0  0  0  0  0  0  0  0  0
  -38.6283   54.5359   64.8683 H   0  0  0  0  0  0  0  0  0  0  0  0
  -37.6961   53.0330   64.9935 H   0  0  0  0  0  0  0  0  0  0  0  0
  -40.8554   50.1890   64.4199 H   0  0  0  0  0  0  0  0  0  0  0  0
  -42.3102   51.7030   66.5404 H   0  0  0  0  0  0  0  0  0  0  0  0
  -40.9524   50.6167   66.9110 H   0  0  0  0  0  0  0  0  0  0  0  0
  -43.0385   49.4953   67.2487 H   0  0  0  0  0  0  0  0  0  0  0  0
  -42.1187   48.8155   65.8690 H   0  0  0  0  0  0  0  0  0  0  0  0
  -44.4424   50.6336   65.6136 H   0  0  0  0  0  0  0  0  0  0  0  0
  -44.4762   48.8564   65.4842 H   0  0  0  0  0  0  0  0  0  0  0  0
  -42.8132   49.1036   63.6557 H   0  0  0  0  0  0  0  0  0  0  0  0
  -44.4830   49.6386   63.3377 H   0  0  0  0  0  0  0  0  0  0  0  0
  1 33  1  0  0  0  0
  1 34  1  0  0  0  0
  1 61  1  0  0  0  0
  2  4  1  0  0  0  0
  2 62  1  0  0  0  0
  2 63  1  0  0  0  0
  2 64  1  0  0  0  0
  3 33  2  0  0  0  0
  4  7  1  0  0  0  0
  4 65  1  0  0  0  0
  4 66  1  0  0  0  0
  5 38  1  0  0  0  0
  5 39  1  0  0  0  0
  5 67  1  0  0  0  0
  6 39  2  0  0  0  0
  7 10  1  0  0  0  0
  7 68  1  0  0  0  0
  7 69  1  0  0  0  0
  8 40  1  0  0  0  0
  8 43  2  0  0  0  0
  9 42  1  0  0  0  0
  9 43  1  0  0  0  0
 10 13  1  0  0  0  0
 10 70  1  0  0  0  0
 10 71  1  0  0  0  0
 11 54  1  0  0  0  0
 11 55  1  0  0  0  0
 11 72  1  0  0  0  0
 12 49  1  0  0  0  0
 12 73  1  0  0  0  0
 13 16  1  0  0  0  0
 13 74  1  0  0  0  0
 13 75  1  0  0  0  0
 14 59  1  0  0  0  0
 14 60  1  0  0  0  0
 14 76  1  0  0  0  0
 15 50  2  0  0  0  0
 16 18  1  0  0  0  0
 16 77  1  0  0  0  0
 16 78  1  0  0  0  0
 17 50  1  0  0  0  0
 17 51  1  0  0  0  0
 18 20  1  0  0  0  0
 18 79  1  0  0  0  0
 18 80  1  0  0  0  0
 19 54  2  0  0  0  0
 20 22  1  0  0  0  0
 20 81  1  0  0  0  0
 20 82  1  0  0  0  0
 21 60  2  0  0  0  0
 22 23  1  0  0  0  0
 22 83  1  0  0  0  0
 22 84  1  0  0  0  0
 23 24  1  0  0  0  0
 23 85  1  0  0  0  0
 23 86  1  0  0  0  0
 24 25  1  0  0  0  0
 24 87  1  0  0  0  0
 24 88  1  0  0  0  0
 25 26  1  0  0  0  0
 25 89  1  0  0  0  0
 25 90  1  0  0  0  0
 26 27  1  0  0  0  0
 26 91  1  0  0  0  0
 26 92  1  0  0  0  0
 27 28  1  0  0  0  0
 27 93  1  0  0  0  0
 27 94  1  0  0  0  0
 28 29  1  0  0  0  0
 28 95  1  0  0  0  0
 28 96  1  0  0  0  0
 29 30  1  0  0  0  0
 29 97  1  0  0  0  0
 29 98  1  0  0  0  0
 30 31  1  0  0  0  0
 30 99  1  0  0  0  0
 30100  1  0  0  0  0
 31 32  2  0  0  0  0
 31101  1  0  0  0  0
 32 33  1  0  0  0  0
 32102  1  0  0  0  0
 34 35  1  0  0  0  0
 34103  1  0  0  0  0
 34104  1  0  0  0  0
 35 36  1  0  0  0  0
 35105  1  0  0  0  0
 35106  1  0  0  0  0
 36 37  1  0  0  0  0
 36107  1  0  0  0  0
 36108  1  0  0  0  0
 37 38  1  0  0  0  0
 37109  1  0  0  0  0
 37110  1  0  0  0  0
 38 50  1  0  0  0  0
 38111  1  1  0  0  0
 40 39  1  6  0  0  0
 40 41  1  0  0  0  0
 40 42  1  0  0  0  0
 41112  1  0  0  0  0
 41113  1  0  0  0  0
 41114  1  0  0  0  0
 42115  1  0  0  0  0
 42116  1  0  0  0  0
 43 44  1  0  0  0  0
 44 45  2  0  0  0  0
 44 49  1  0  0  0  0
 45 46  1  0  0  0  0
 45117  1  0  0  0  0
 46 47  2  0  0  0  0
 46118  1  0  0  0  0
 47 48  1  0  0  0  0
 47119  1  0  0  0  0
 48 49  2  0  0  0  0
 48120  1  0  0  0  0
 51 52  1  0  0  0  0
 51 53  1  0  0  0  0
 51121  1  6  0  0  0
 52122  1  0  0  0  0
 52123  1  0  0  0  0
 52124  1  0  0  0  0
 53 54  1  0  0  0  0
 53125  1  0  0  0  0
 53126  1  0  0  0  0
 55 56  1  0  0  0  0
 55 60  1  0  0  0  0
 55127  1  6  0  0  0
 56 57  1  0  0  0  0
 56128  1  0  0  0  0
 56129  1  0  0  0  0
 57 58  1  0  0  0  0
 57130  1  0  0  0  0
 57131  1  0  0  0  0
 58 59  1  0  0  0  0
 58132  1  0  0  0  0
 58133  1  0  0  0  0
 59134  1  0  0  0  0
 59135  1  0  0  0  0
M  END
$$$$