/media/chris/experiments/cd1a-new-docking/inputs/ligands/7ryo_ligand.pdb
 OpenBabel07032304133D

135137  0  0  1  0  0  0  0  0999 V2000
  -36.2311   60.7237   61.5795 N   0  0  0  0  0  0  0  0  0  0  0  0
  -44.6992   63.4367   68.5417 C   0  0  0  0  0  0  0  0  0  0  0  0
  -36.9043   62.5210   62.7670 O   0  0  0  0  0  0  0  0  0  0  0  0
  -44.8802   62.4380   67.4289 C   0  0  0  0  0  0  0  0  0  0  0  0
  -33.1324   57.6580   60.0424 N   0  0  0  0  0  0  0  0  0  0  0  0
  -35.2034   57.7505   59.1729 O   0  0  0  0  0  0  0  0  0  0  0  0
  -43.6190   62.2137   66.6147 C   0  0  0  0  0  0  0  0  0  0  0  0
  -34.3241   58.7263   56.7807 N   0  0  0  0  0  0  0  0  0  0  0  0
  -34.3389   60.9617   57.0744 O   0  0  0  0  0  0  0  0  0  0  0  0
  -43.7753   61.2226   65.4726 C   0  0  0  0  0  0  0  0  0  0  0  0
  -32.6172   49.8940   61.6865 N   0  0  0  0  0  0  0  0  0  0  0  0
  -36.8698   58.1186   55.5882 O   0  0  0  0  0  0  0  0  0  0  0  0
  -42.4929   61.0021   64.6821 C   0  0  0  0  0  0  0  0  0  0  0  0
  -34.7782   47.0391   61.1640 N   0  0  0  0  0  0  0  0  0  0  0  0
  -34.9053   55.2614   59.8825 O   0  0  0  0  0  0  0  0  0  0  0  0
  -41.9339   62.2666   64.0485 C   0  0  0  0  0  0  0  0  0  0  0  0
  -33.2496   54.4578   61.1839 O   0  0  0  0  0  0  0  0  0  0  0  0
  -41.5685   63.3538   65.0442 C   0  0  0  0  0  0  0  0  0  0  0  0
  -34.2163   50.6555   63.0738 O   0  0  0  0  0  0  0  0  0  0  0  0
  -40.5004   62.9462   66.0459 C   0  0  0  0  0  0  0  0  0  0  0  0
  -35.1603   49.2447   61.3064 O   0  0  0  0  0  0  0  0  0  0  0  0
  -40.1644   64.0405   67.0396 C   0  0  0  0  0  0  0  0  0  0  0  0
  -39.6601   65.3047   66.3706 C   0  0  0  0  0  0  0  0  0  0  0  0
  -38.4105   65.1140   65.5346 C   0  0  0  0  0  0  0  0  0  0  0  0
  -37.9220   66.3981   64.8933 C   0  0  0  0  0  0  0  0  0  0  0  0
  -36.6787   66.2150   64.0387 C   0  0  0  0  0  0  0  0  0  0  0  0
  -36.1815   67.5038   63.4115 C   0  0  0  0  0  0  0  0  0  0  0  0
  -34.9483   67.3412   62.5385 C   0  0  0  0  0  0  0  0  0  0  0  0
  -35.1590   66.4118   61.3558 C   0  0  0  0  0  0  0  0  0  0  0  0
  -35.5671   64.9975   61.7495 C   0  0  0  0  0  0  0  0  0  0  0  0
  -35.7455   64.1183   60.5513 C   0  0  0  0  0  0  0  0  0  0  0  0
  -36.1071   62.8427   60.5264 C   0  0  0  0  0  0  0  0  0  0  0  0
  -36.4280   62.0384   61.7265 C   0  0  0  0  0  0  0  0  0  0  0  0
  -36.5610   59.7701   62.6268 C   0  0  0  0  0  0  0  0  0  0  0  0
  -36.9560   58.4330   62.0390 C   0  0  0  0  0  0  0  0  0  0  0  0
  -35.8780   57.7610   61.2090 C   0  0  0  0  0  0  0  0  0  0  0  0
  -34.6110   57.4590   62.0020 C   0  0  0  0  0  0  0  0  0  0  0  0
  -33.5311   56.7980   61.1441 C   0  0  1  0  0  0  0  0  0  0  0  0
  -34.0234   58.0662   59.1357 C   0  0  0  0  0  0  0  0  0  0  0  0
  -33.5145   58.9550   57.9889 C   0  0  1  0  0  0  0  0  0  0  0  0
  -32.0628   58.5925   57.6904 C   0  0  0  0  0  0  0  0  0  0  0  0
  -33.6795   60.4571   58.2634 C   0  0  0  0  0  0  0  0  0  0  0  0
  -34.7182   59.8614   56.3735 C   0  0  0  0  0  0  0  0  0  0  0  0
  -35.5525   60.1152   55.1966 C   0  0  0  0  0  0  0  0  0  0  0  0
  -35.4180   61.3090   54.4867 C   0  0  0  0  0  0  0  0  0  0  0  0
  -36.3541   61.6676   53.5321 C   0  0  0  0  0  0  0  0  0  0  0  0
  -37.4317   60.8500   53.2698 C   0  0  0  0  0  0  0  0  0  0  0  0
  -37.5906   59.6636   53.9627 C   0  0  0  0  0  0  0  0  0  0  0  0
  -36.6615   59.2870   54.9274 C   0  0  0  0  0  0  0  0  0  0  0  0
  -33.9929   55.4382   60.6419 C   0  0  0  0  0  0  0  0  0  0  0  0
  -33.8810   53.1533   61.4055 C   0  0  2  0  0  0  0  0  0  0  0  0
  -35.0574   53.3536   62.3273 C   0  0  0  0  0  0  0  0  0  0  0  0
  -32.8062   52.2800   62.0233 C   0  0  0  0  0  0  0  0  0  0  0  0
  -33.2814   50.8726   62.3081 C   0  0  0  0  0  0  0  0  0  0  0  0
  -32.9584   48.4949   61.8756 C   0  0  1  0  0  0  0  0  0  0  0  0
  -32.8277   48.1161   63.3551 C   0  0  0  0  0  0  0  0  0  0  0  0
  -32.7179   46.6141   63.5940 C   0  0  0  0  0  0  0  0  0  0  0  0
  -33.9115   45.7942   63.1458 C   0  0  0  0  0  0  0  0  0  0  0  0
  -34.1517   45.8147   61.6508 C   0  0  0  0  0  0  0  0  0  0  0  0
  -34.3959   48.2914   61.4238 C   0  0  0  0  0  0  0  0  0  0  0  0
  -35.8505   60.3907   60.7348 H   0  0  0  0  0  0  0  0  0  0  0  0
  -45.6206   63.5483   69.0742 H   0  0  0  0  0  0  0  0  0  0  0  0
  -44.4086   64.3806   68.1301 H   0  0  0  0  0  0  0  0  0  0  0  0
  -43.9399   63.0907   69.2115 H   0  0  0  0  0  0  0  0  0  0  0  0
  -45.6485   62.7937   66.7745 H   0  0  0  0  0  0  0  0  0  0  0  0
  -45.1374   61.5026   67.8803 H   0  0  0  0  0  0  0  0  0  0  0  0
  -32.1934   57.9432   59.9638 H   0  0  0  0  0  0  0  0  0  0  0  0
  -42.8571   61.8494   67.2717 H   0  0  0  0  0  0  0  0  0  0  0  0
  -43.3719   63.1550   66.1698 H   0  0  0  0  0  0  0  0  0  0  0  0
  -44.5261   61.5905   64.8049 H   0  0  0  0  0  0  0  0  0  0  0  0
  -44.0444   60.2820   65.9059 H   0  0  0  0  0  0  0  0  0  0  0  0
  -31.8753   50.1280   61.0831 H   0  0  0  0  0  0  0  0  0  0  0  0
  -36.2626   57.8365   56.2438 H   0  0  0  0  0  0  0  0  0  0  0  0
  -42.6942   60.2960   63.9038 H   0  0  0  0  0  0  0  0  0  0  0  0
  -41.7574   60.6511   65.3755 H   0  0  0  0  0  0  0  0  0  0  0  0
  -35.5655   46.9303   60.5829 H   0  0  0  0  0  0  0  0  0  0  0  0
  -42.6695   62.6594   63.3781 H   0  0  0  0  0  0  0  0  0  0  0  0
  -41.0278   61.9871   63.5528 H   0  0  0  0  0  0  0  0  0  0  0  0
  -42.4511   63.6236   65.5856 H   0  0  0  0  0  0  0  0  0  0  0  0
  -41.1653   64.1672   64.4780 H   0  0  0  0  0  0  0  0  0  0  0  0
  -39.6111   62.6896   65.5091 H   0  0  0  0  0  0  0  0  0  0  0  0
  -40.8867   62.1185   66.6032 H   0  0  0  0  0  0  0  0  0  0  0  0
  -39.4070   63.6792   67.7035 H   0  0  0  0  0  0  0  0  0  0  0  0
  -41.0640   64.2889   67.5630 H   0  0  0  0  0  0  0  0  0  0  0  0
  -39.4463   66.0245   67.1329 H   0  0  0  0  0  0  0  0  0  0  0  0
  -40.4305   65.6240   65.7003 H   0  0  0  0  0  0  0  0  0  0  0  0
  -38.6232   64.4064   64.7607 H   0  0  0  0  0  0  0  0  0  0  0  0
  -37.6375   64.7707   66.1901 H   0  0  0  0  0  0  0  0  0  0  0  0
  -37.6991   67.1005   65.6692 H   0  0  0  0  0  0  0  0  0  0  0  0
  -38.7010   66.7421   64.2455 H   0  0  0  0  0  0  0  0  0  0  0  0
  -36.9051   65.5222   63.2553 H   0  0  0  0  0  0  0  0  0  0  0  0
  -35.9028   65.8584   64.6835 H   0  0  0  0  0  0  0  0  0  0  0  0
  -35.9467   68.1901   64.1981 H   0  0  0  0  0  0  0  0  0  0  0  0
  -36.9645   67.8546   62.7722 H   0  0  0  0  0  0  0  0  0  0  0  0
  -34.1567   66.9476   63.1412 H   0  0  0  0  0  0  0  0  0  0  0  0
  -34.7155   68.3070   62.1412 H   0  0  0  0  0  0  0  0  0  0  0  0
  -34.2448   66.3574   60.8025 H   0  0  0  0  0  0  0  0  0  0  0  0
  -35.9632   66.8189   60.7792 H   0  0  0  0  0  0  0  0  0  0  0  0
  -36.4904   65.0404   62.2885 H   0  0  0  0  0  0  0  0  0  0  0  0
  -34.7885   64.5822   62.3547 H   0  0  0  0  0  0  0  0  0  0  0  0
  -35.5655   64.5575   59.6349 H   0  0  0  0  0  0  0  0  0  0  0  0
  -36.1690   62.3788   59.6066 H   0  0  0  0  0  0  0  0  0  0  0  0
  -37.3764   60.1530   63.2042 H   0  0  0  0  0  0  0  0  0  0  0  0
  -35.6979   59.6294   63.2434 H   0  0  0  0  0  0  0  0  0  0  0  0
  -37.8119   58.5833   61.4147 H   0  0  0  0  0  0  0  0  0  0  0  0
  -37.1476   57.7838   62.8677 H   0  0  0  0  0  0  0  0  0  0  0  0
  -35.6238   58.4067   60.3945 H   0  0  0  0  0  0  0  0  0  0  0  0
  -36.2729   56.8255   60.8717 H   0  0  0  0  0  0  0  0  0  0  0  0
  -34.8590   56.8018   62.8091 H   0  0  0  0  0  0  0  0  0  0  0  0
  -34.2203   58.3886   62.3599 H   0  0  0  0  0  0  0  0  0  0  0  0
  -32.6704   56.6456   61.7612 H   0  0  0  0  0  0  0  0  0  0  0  0
  -31.9886   57.5413   57.5051 H   0  0  0  0  0  0  0  0  0  0  0  0
  -31.4509   58.8509   58.5292 H   0  0  0  0  0  0  0  0  0  0  0  0
  -31.7310   59.1310   56.8274 H   0  0  0  0  0  0  0  0  0  0  0  0
  -34.2832   60.6208   59.1314 H   0  0  0  0  0  0  0  0  0  0  0  0
  -32.7468   60.9452   58.4550 H   0  0  0  0  0  0  0  0  0  0  0  0
  -34.6147   61.9290   54.6747 H   0  0  0  0  0  0  0  0  0  0  0  0
  -36.2442   62.5531   53.0135 H   0  0  0  0  0  0  0  0  0  0  0  0
  -38.1226   61.1238   52.5538 H   0  0  0  0  0  0  0  0  0  0  0  0
  -38.4007   59.0560   53.7636 H   0  0  0  0  0  0  0  0  0  0  0  0
  -34.2508   52.6936   60.5129 H   0  0  0  0  0  0  0  0  0  0  0  0
  -34.7252   53.8132   63.2347 H   0  0  0  0  0  0  0  0  0  0  0  0
  -35.5019   52.4060   62.5494 H   0  0  0  0  0  0  0  0  0  0  0  0
  -35.7797   53.9838   61.8520 H   0  0  0  0  0  0  0  0  0  0  0  0
  -32.4908   52.7264   62.9431 H   0  0  0  0  0  0  0  0  0  0  0  0
  -32.0044   52.2112   61.3180 H   0  0  0  0  0  0  0  0  0  0  0  0
  -32.2957   47.8778   61.3055 H   0  0  0  0  0  0  0  0  0  0  0  0
  -33.6899   48.4790   63.8745 H   0  0  0  0  0  0  0  0  0  0  0  0
  -31.9210   48.5576   63.7129 H   0  0  0  0  0  0  0  0  0  0  0  0
  -32.5846   46.4559   64.6438 H   0  0  0  0  0  0  0  0  0  0  0  0
  -31.8926   46.2813   62.9999 H   0  0  0  0  0  0  0  0  0  0  0  0
  -34.7841   46.1785   63.6313 H   0  0  0  0  0  0  0  0  0  0  0  0
  -33.7038   44.7784   63.4102 H   0  0  0  0  0  0  0  0  0  0  0  0
  -33.2090   45.7008   61.1575 H   0  0  0  0  0  0  0  0  0  0  0  0
  -34.8300   45.0154   61.4367 H   0  0  0  0  0  0  0  0  0  0  0  0
  1 33  1  0  0  0  0
  1 34  1  0  0  0  0
  1 61  1  0  0  0  0
  2  4  1  0  0  0  0
  2 62  1  0  0  0  0
  2 63  1  0  0  0  0
  2 64  1  0  0  0  0
  3 33  2  0  0  0  0
  4  7  1  0  0  0  0
  4 65  1  0  0  0  0
  4 66  1  0  0  0  0
  5 38  1  0  0  0  0
  5 39  1  0  0  0  0
  5 67  1  0  0  0  0
  6 39  2  0  0  0  0
  7 10  1  0  0  0  0
  7 68  1  0  0  0  0
  7 69  1  0  0  0  0
  8 40  1  0  0  0  0
  8 43  2  0  0  0  0
  9 42  1  0  0  0  0
  9 43  1  0  0  0  0
 10 13  1  0  0  0  0
 10 70  1  0  0  0  0
 10 71  1  0  0  0  0
 11 54  1  0  0  0  0
 11 55  1  0  0  0  0
 11 72  1  0  0  0  0
 12 49  1  0  0  0  0
 12 73  1  0  0  0  0
 13 16  1  0  0  0  0
 13 74  1  0  0  0  0
 13 75  1  0  0  0  0
 14 59  1  0  0  0  0
 14 60  1  0  0  0  0
 14 76  1  0  0  0  0
 15 50  2  0  0  0  0
 16 18  1  0  0  0  0
 16 77  1  0  0  0  0
 16 78  1  0  0  0  0
 17 50  1  0  0  0  0
 17 51  1  0  0  0  0
 18 20  1  0  0  0  0
 18 79  1  0  0  0  0
 18 80  1  0  0  0  0
 19 54  2  0  0  0  0
 20 22  1  0  0  0  0
 20 81  1  0  0  0  0
 20 82  1  0  0  0  0
 21 60  2  0  0  0  0
 22 23  1  0  0  0  0
 22 83  1  0  0  0  0
 22 84  1  0  0  0  0
 23 24  1  0  0  0  0
 23 85  1  0  0  0  0
 23 86  1  0  0  0  0
 24 25  1  0  0  0  0
 24 87  1  0  0  0  0
 24 88  1  0  0  0  0
 25 26  1  0  0  0  0
 25 89  1  0  0  0  0
 25 90  1  0  0  0  0
 26 27  1  0  0  0  0
 26 91  1  0  0  0  0
 26 92  1  0  0  0  0
 27 28  1  0  0  0  0
 27 93  1  0  0  0  0
 27 94  1  0  0  0  0
 28 29  1  0  0  0  0
 28 95  1  0  0  0  0
 28 96  1  0  0  0  0
 29 30  1  0  0  0  0
 29 97  1  0  0  0  0
 29 98  1  0  0  0  0
 30 31  1  0  0  0  0
 30 99  1  0  0  0  0
 30100  1  0  0  0  0
 31 32  2  0  0  0  0
 31101  1  0  0  0  0
 32 33  1  0  0  0  0
 32102  1  0  0  0  0
 34 35  1  0  0  0  0
 34103  1  0  0  0  0
 34104  1  0  0  0  0
 35 36  1  0  0  0  0
 35105  1  0  0  0  0
 35106  1  0  0  0  0
 36 37  1  0  0  0  0
 36107  1  0  0  0  0
 36108  1  0  0  0  0
 37 38  1  0  0  0  0
 37109  1  0  0  0  0
 37110  1  0  0  0  0
 38 50  1  0  0  0  0
 38111  1  1  0  0  0
 40 39  1  1  0  0  0
 40 41  1  0  0  0  0
 40 42  1  0  0  0  0
 41112  1  0  0  0  0
 41113  1  0  0  0  0
 41114  1  0  0  0  0
 42115  1  0  0  0  0
 42116  1  0  0  0  0
 43 44  1  0  0  0  0
 44 45  2  0  0  0  0
 44 49  1  0  0  0  0
 45 46  1  0  0  0  0
 45117  1  0  0  0  0
 46 47  2  0  0  0  0
 46118  1  0  0  0  0
 47 48  1  0  0  0  0
 47119  1  0  0  0  0
 48 49  2  0  0  0  0
 48120  1  0  0  0  0
 51 52  1  0  0  0  0
 51 53  1  0  0  0  0
 51121  1  6  0  0  0
 52122  1  0  0  0  0
 52123  1  0  0  0  0
 52124  1  0  0  0  0
 53 54  1  0  0  0  0
 53125  1  0  0  0  0
 53126  1  0  0  0  0
 55 56  1  0  0  0  0
 55 60  1  0  0  0  0
 55127  1  6  0  0  0
 56 57  1  0  0  0  0
 56128  1  0  0  0  0
 56129  1  0  0  0  0
 57 58  1  0  0  0  0
 57130  1  0  0  0  0
 57131  1  0  0  0  0
 58 59  1  0  0  0  0
 58132  1  0  0  0  0
 58133  1  0  0  0  0
 59134  1  0  0  0  0
 59135  1  0  0  0  0
M  END
$$$$