/media/chris/experiments/cd1a-new-docking/inputs/ligands/7ryo_ligand.pdb
 OpenBabel07032304133D

135137  0  0  1  0  0  0  0  0999 V2000
  -37.9573   56.3471   62.8329 N   0  0  0  0  0  0  0  0  0  0  0  0
  -41.6482   57.8832   64.5148 C   0  0  0  0  0  0  0  0  0  0  0  0
  -39.5674   57.2370   61.5255 O   0  0  0  0  0  0  0  0  0  0  0  0
  -40.2239   58.3164   64.2863 C   0  0  0  0  0  0  0  0  0  0  0  0
  -33.1324   57.6580   60.0424 N   0  0  0  0  0  0  0  0  0  0  0  0
  -35.2034   57.7505   59.1729 O   0  0  0  0  0  0  0  0  0  0  0  0
  -39.8611   59.5935   65.0220 C   0  0  0  0  0  0  0  0  0  0  0  0
  -32.4979   58.2313   57.2076 N   0  0  0  0  0  0  0  0  0  0  0  0
  -33.9877   58.9649   55.6827 O   0  0  0  0  0  0  0  0  0  0  0  0
  -38.4336   60.0653   64.7970 C   0  0  0  0  0  0  0  0  0  0  0  0
  -36.2461   53.3287   55.7231 N   0  0  0  0  0  0  0  0  0  0  0  0
  -31.5015   55.7543   56.1385 O   0  0  0  0  0  0  0  0  0  0  0  0
  -38.1205   60.3745   63.3395 C   0  0  0  0  0  0  0  0  0  0  0  0
  -37.6889   50.2689   54.4388 N   0  0  0  0  0  0  0  0  0  0  0  0
  -33.8850   54.4096   61.2508 O   0  0  0  0  0  0  0  0  0  0  0  0
  -38.9821   61.4772   62.7440 C   0  0  0  0  0  0  0  0  0  0  0  0
  -34.5209   55.5446   59.4101 O   0  0  0  0  0  0  0  0  0  0  0  0
  -38.6870   61.7797   61.2852 C   0  0  0  0  0  0  0  0  0  0  0  0
  -33.9965   53.2978   55.7168 O   0  0  0  0  0  0  0  0  0  0  0  0
  -38.9056   60.6022   60.3494 C   0  0  0  0  0  0  0  0  0  0  0  0
  -37.2458   51.0022   56.5116 O   0  0  0  0  0  0  0  0  0  0  0  0
  -38.5889   60.9224   58.9019 C   0  0  0  0  0  0  0  0  0  0  0  0
  -38.8270   59.7452   57.9758 C   0  0  0  0  0  0  0  0  0  0  0  0
  -38.0116   58.5121   58.3095 C   0  0  0  0  0  0  0  0  0  0  0  0
  -38.2592   57.3593   57.3564 C   0  0  0  0  0  0  0  0  0  0  0  0
  -39.7082   56.9027   57.3196 C   0  0  0  0  0  0  0  0  0  0  0  0
  -39.9510   55.7381   56.3781 C   0  0  0  0  0  0  0  0  0  0  0  0
  -39.1734   54.4792   56.7244 C   0  0  0  0  0  0  0  0  0  0  0  0
  -39.5031   53.9195   58.0974 C   0  0  0  0  0  0  0  0  0  0  0  0
  -39.2321   54.8912   59.2394 C   0  0  0  0  0  0  0  0  0  0  0  0
  -39.5567   54.2870   60.5699 C   0  0  0  0  0  0  0  0  0  0  0  0
  -39.4536   54.8518   61.7653 C   0  0  0  0  0  0  0  0  0  0  0  0
  -38.9986   56.2403   62.0005 C   0  0  0  0  0  0  0  0  0  0  0  0
  -37.4201   57.6362   63.2386 C   0  0  0  0  0  0  0  0  0  0  0  0
  -36.9560   58.4330   62.0390 C   0  0  0  0  0  0  0  0  0  0  0  0
  -35.8780   57.7610   61.2090 C   0  0  0  0  0  0  0  0  0  0  0  0
  -34.6110   57.4590   62.0020 C   0  0  0  0  0  0  0  0  0  0  0  0
  -33.5311   56.7980   61.1441 C   0  0  1  0  0  0  0  0  0  0  0  0
  -34.0234   58.0662   59.1357 C   0  0  0  0  0  0  0  0  0  0  0  0
  -33.5145   58.9550   57.9889 C   0  0  1  0  0  0  0  0  0  0  0  0
  -32.8843   60.2121   58.5810 C   0  0  0  0  0  0  0  0  0  0  0  0
  -34.5984   59.2961   56.9557 C   0  0  0  0  0  0  0  0  0  0  0  0
  -32.8468   58.2943   55.9895 C   0  0  0  0  0  0  0  0  0  0  0  0
  -32.1281   57.7119   54.8538 C   0  0  0  0  0  0  0  0  0  0  0  0
  -32.1948   58.3165   53.5979 C   0  0  0  0  0  0  0  0  0  0  0  0
  -31.7298   57.6549   52.4744 C   0  0  0  0  0  0  0  0  0  0  0  0
  -31.1943   56.3898   52.5813 C   0  0  0  0  0  0  0  0  0  0  0  0
  -31.1209   55.7665   53.8137 C   0  0  0  0  0  0  0  0  0  0  0  0
  -31.5850   56.4145   54.9542 C   0  0  0  0  0  0  0  0  0  0  0  0
  -33.9929   55.4382   60.6419 C   0  0  0  0  0  0  0  0  0  0  0  0
  -34.3952   54.3999   58.5026 C   0  0  2  0  0  0  0  0  0  0  0  0
  -32.9272   54.1129   58.3123 C   0  0  0  0  0  0  0  0  0  0  0  0
  -35.0717   54.8255   57.2139 C   0  0  0  0  0  0  0  0  0  0  0  0
  -35.0524   53.7468   56.1538 C   0  0  0  0  0  0  0  0  0  0  0  0
  -36.3775   52.3059   54.7002 C   0  0  1  0  0  0  0  0  0  0  0  0
  -34.9916   51.8350   54.2451 C   0  0  0  0  0  0  0  0  0  0  0  0
  -35.0007   51.1218   52.8973 C   0  0  0  0  0  0  0  0  0  0  0  0
  -35.8194   49.8475   52.8400 C   0  0  0  0  0  0  0  0  0  0  0  0
  -37.3051   50.0550   53.0475 C   0  0  0  0  0  0  0  0  0  0  0  0
  -37.1423   51.1343   55.2956 C   0  0  0  0  0  0  0  0  0  0  0  0
  -37.5409   55.5263   63.1824 H   0  0  0  0  0  0  0  0  0  0  0  0
  -41.8384   56.9814   63.9710 H   0  0  0  0  0  0  0  0  0  0  0  0
  -42.3130   58.6504   64.1767 H   0  0  0  0  0  0  0  0  0  0  0  0
  -41.8052   57.7099   65.5589 H   0  0  0  0  0  0  0  0  0  0  0  0
  -40.0812   58.4758   63.2379 H   0  0  0  0  0  0  0  0  0  0  0  0
  -39.5914   57.5409   64.6651 H   0  0  0  0  0  0  0  0  0  0  0  0
  -32.1934   57.9432   59.9638 H   0  0  0  0  0  0  0  0  0  0  0  0
  -39.9966   59.4257   66.0700 H   0  0  0  0  0  0  0  0  0  0  0  0
  -40.5000   60.3599   64.6356 H   0  0  0  0  0  0  0  0  0  0  0  0
  -37.7664   59.2987   65.1318 H   0  0  0  0  0  0  0  0  0  0  0  0
  -38.3121   60.9758   65.3457 H   0  0  0  0  0  0  0  0  0  0  0  0
  -37.0599   53.7251   56.1102 H   0  0  0  0  0  0  0  0  0  0  0  0
  -31.8053   56.1629   56.9251 H   0  0  0  0  0  0  0  0  0  0  0  0
  -38.2704   59.4834   62.7664 H   0  0  0  0  0  0  0  0  0  0  0  0
  -37.1081   60.7193   63.3059 H   0  0  0  0  0  0  0  0  0  0  0  0
  -38.4287   49.7170   54.7816 H   0  0  0  0  0  0  0  0  0  0  0  0
  -38.8224   62.3706   63.3108 H   0  0  0  0  0  0  0  0  0  0  0  0
  -39.9944   61.1335   62.7878 H   0  0  0  0  0  0  0  0  0  0  0  0
  -37.6650   62.0864   61.2059 H   0  0  0  0  0  0  0  0  0  0  0  0
  -39.3730   62.5438   60.9843 H   0  0  0  0  0  0  0  0  0  0  0  0
  -39.9305   60.3017   60.4147 H   0  0  0  0  0  0  0  0  0  0  0  0
  -38.2381   59.8242   60.6562 H   0  0  0  0  0  0  0  0  0  0  0  0
  -37.5606   61.2101   58.8322 H   0  0  0  0  0  0  0  0  0  0  0  0
  -39.2426   61.7120   58.5952 H   0  0  0  0  0  0  0  0  0  0  0  0
  -38.5828   60.0485   56.9792 H   0  0  0  0  0  0  0  0  0  0  0  0
  -39.8553   59.4713   58.0879 H   0  0  0  0  0  0  0  0  0  0  0  0
  -38.2634   58.1951   59.3000 H   0  0  0  0  0  0  0  0  0  0  0  0
  -36.9791   58.7799   58.2248 H   0  0  0  0  0  0  0  0  0  0  0  0
  -37.6513   56.5326   57.6598 H   0  0  0  0  0  0  0  0  0  0  0  0
  -38.0135   57.7052   56.3741 H   0  0  0  0  0  0  0  0  0  0  0  0
  -40.3149   57.7256   57.0041 H   0  0  0  0  0  0  0  0  0  0  0  0
  -39.9586   56.5689   58.3049 H   0  0  0  0  0  0  0  0  0  0  0  0
  -39.6730   56.0423   55.3906 H   0  0  0  0  0  0  0  0  0  0  0  0
  -40.9883   55.4891   56.4609 H   0  0  0  0  0  0  0  0  0  0  0  0
  -38.1286   54.7080   56.6943 H   0  0  0  0  0  0  0  0  0  0  0  0
  -39.4476   53.7338   56.0075 H   0  0  0  0  0  0  0  0  0  0  0  0
  -38.9123   53.0413   58.2544 H   0  0  0  0  0  0  0  0  0  0  0  0
  -40.5531   53.7138   58.1060 H   0  0  0  0  0  0  0  0  0  0  0  0
  -39.8325   55.7659   59.1002 H   0  0  0  0  0  0  0  0  0  0  0  0
  -38.1904   55.1353   59.2293 H   0  0  0  0  0  0  0  0  0  0  0  0
  -39.9019   53.3146   60.5551 H   0  0  0  0  0  0  0  0  0  0  0  0
  -39.7083   54.2839   62.5885 H   0  0  0  0  0  0  0  0  0  0  0  0
  -36.5906   57.4783   63.8958 H   0  0  0  0  0  0  0  0  0  0  0  0
  -38.1924   58.1861   63.7346 H   0  0  0  0  0  0  0  0  0  0  0  0
  -36.5724   59.3687   62.3887 H   0  0  0  0  0  0  0  0  0  0  0  0
  -37.8072   58.5391   61.3994 H   0  0  0  0  0  0  0  0  0  0  0  0
  -35.6238   58.4067   60.3945 H   0  0  0  0  0  0  0  0  0  0  0  0
  -36.2729   56.8255   60.8717 H   0  0  0  0  0  0  0  0  0  0  0  0
  -34.8590   56.8018   62.8091 H   0  0  0  0  0  0  0  0  0  0  0  0
  -34.2203   58.3886   62.3599 H   0  0  0  0  0  0  0  0  0  0  0  0
  -32.6704   56.6456   61.7612 H   0  0  0  0  0  0  0  0  0  0  0  0
  -32.1365   59.9342   59.2941 H   0  0  0  0  0  0  0  0  0  0  0  0
  -33.6395   60.7955   59.0650 H   0  0  0  0  0  0  0  0  0  0  0  0
  -32.4351   60.7880   57.7991 H   0  0  0  0  0  0  0  0  0  0  0  0
  -35.4779   58.7091   57.1196 H   0  0  0  0  0  0  0  0  0  0  0  0
  -34.9103   60.3182   57.0088 H   0  0  0  0  0  0  0  0  0  0  0  0
  -32.5937   59.2638   53.5060 H   0  0  0  0  0  0  0  0  0  0  0  0
  -31.7845   58.1121   51.5508 H   0  0  0  0  0  0  0  0  0  0  0  0
  -30.8469   55.9056   51.7388 H   0  0  0  0  0  0  0  0  0  0  0  0
  -30.7207   54.8181   53.8877 H   0  0  0  0  0  0  0  0  0  0  0  0
  -34.8498   53.5037   58.8700 H   0  0  0  0  0  0  0  0  0  0  0  0
  -32.4372   54.9899   57.9441 H   0  0  0  0  0  0  0  0  0  0  0  0
  -32.8080   53.3157   57.6086 H   0  0  0  0  0  0  0  0  0  0  0  0
  -32.4949   53.8294   59.2491 H   0  0  0  0  0  0  0  0  0  0  0  0
  -34.5667   55.6881   56.8322 H   0  0  0  0  0  0  0  0  0  0  0  0
  -36.0964   55.0319   57.4427 H   0  0  0  0  0  0  0  0  0  0  0  0
  -36.8985   52.7017   53.8536 H   0  0  0  0  0  0  0  0  0  0  0  0
  -34.6046   51.1618   54.9812 H   0  0  0  0  0  0  0  0  0  0  0  0
  -34.3846   52.7090   54.1332 H   0  0  0  0  0  0  0  0  0  0  0  0
  -33.9898   50.8759   52.6474 H   0  0  0  0  0  0  0  0  0  0  0  0
  -35.4619   51.7991   52.2092 H   0  0  0  0  0  0  0  0  0  0  0  0
  -35.4634   49.1852   53.6013 H   0  0  0  0  0  0  0  0  0  0  0  0
  -35.6992   49.4484   51.8545 H   0  0  0  0  0  0  0  0  0  0  0  0
  -37.6071   50.9107   52.4805 H   0  0  0  0  0  0  0  0  0  0  0  0
  -37.7893   49.1556   52.7290 H   0  0  0  0  0  0  0  0  0  0  0  0
  1 33  1  0  0  0  0
  1 34  1  0  0  0  0
  1 61  1  0  0  0  0
  2  4  1  0  0  0  0
  2 62  1  0  0  0  0
  2 63  1  0  0  0  0
  2 64  1  0  0  0  0
  3 33  2  0  0  0  0
  4  7  1  0  0  0  0
  4 65  1  0  0  0  0
  4 66  1  0  0  0  0
  5 38  1  0  0  0  0
  5 39  1  0  0  0  0
  5 67  1  0  0  0  0
  6 39  2  0  0  0  0
  7 10  1  0  0  0  0
  7 68  1  0  0  0  0
  7 69  1  0  0  0  0
  8 40  1  0  0  0  0
  8 43  2  0  0  0  0
  9 42  1  0  0  0  0
  9 43  1  0  0  0  0
 10 13  1  0  0  0  0
 10 70  1  0  0  0  0
 10 71  1  0  0  0  0
 11 54  1  0  0  0  0
 11 55  1  0  0  0  0
 11 72  1  0  0  0  0
 12 49  1  0  0  0  0
 12 73  1  0  0  0  0
 13 16  1  0  0  0  0
 13 74  1  0  0  0  0
 13 75  1  0  0  0  0
 14 59  1  0  0  0  0
 14 60  1  0  0  0  0
 14 76  1  0  0  0  0
 15 50  2  0  0  0  0
 16 18  1  0  0  0  0
 16 77  1  0  0  0  0
 16 78  1  0  0  0  0
 17 50  1  0  0  0  0
 17 51  1  0  0  0  0
 18 20  1  0  0  0  0
 18 79  1  0  0  0  0
 18 80  1  0  0  0  0
 19 54  2  0  0  0  0
 20 22  1  0  0  0  0
 20 81  1  0  0  0  0
 20 82  1  0  0  0  0
 21 60  2  0  0  0  0
 22 23  1  0  0  0  0
 22 83  1  0  0  0  0
 22 84  1  0  0  0  0
 23 24  1  0  0  0  0
 23 85  1  0  0  0  0
 23 86  1  0  0  0  0
 24 25  1  0  0  0  0
 24 87  1  0  0  0  0
 24 88  1  0  0  0  0
 25 26  1  0  0  0  0
 25 89  1  0  0  0  0
 25 90  1  0  0  0  0
 26 27  1  0  0  0  0
 26 91  1  0  0  0  0
 26 92  1  0  0  0  0
 27 28  1  0  0  0  0
 27 93  1  0  0  0  0
 27 94  1  0  0  0  0
 28 29  1  0  0  0  0
 28 95  1  0  0  0  0
 28 96  1  0  0  0  0
 29 30  1  0  0  0  0
 29 97  1  0  0  0  0
 29 98  1  0  0  0  0
 30 31  1  0  0  0  0
 30 99  1  0  0  0  0
 30100  1  0  0  0  0
 31 32  2  0  0  0  0
 31101  1  0  0  0  0
 32 33  1  0  0  0  0
 32102  1  0  0  0  0
 34 35  1  0  0  0  0
 34103  1  0  0  0  0
 34104  1  0  0  0  0
 35 36  1  0  0  0  0
 35105  1  0  0  0  0
 35106  1  0  0  0  0
 36 37  1  0  0  0  0
 36107  1  0  0  0  0
 36108  1  0  0  0  0
 37 38  1  0  0  0  0
 37109  1  0  0  0  0
 37110  1  0  0  0  0
 38 50  1  0  0  0  0
 38111  1  1  0  0  0
 40 39  1  1  0  0  0
 40 41  1  0  0  0  0
 40 42  1  0  0  0  0
 41112  1  0  0  0  0
 41113  1  0  0  0  0
 41114  1  0  0  0  0
 42115  1  0  0  0  0
 42116  1  0  0  0  0
 43 44  1  0  0  0  0
 44 45  2  0  0  0  0
 44 49  1  0  0  0  0
 45 46  1  0  0  0  0
 45117  1  0  0  0  0
 46 47  2  0  0  0  0
 46118  1  0  0  0  0
 47 48  1  0  0  0  0
 47119  1  0  0  0  0
 48 49  2  0  0  0  0
 48120  1  0  0  0  0
 51 52  1  0  0  0  0
 51 53  1  0  0  0  0
 51121  1  1  0  0  0
 52122  1  0  0  0  0
 52123  1  0  0  0  0
 52124  1  0  0  0  0
 53 54  1  0  0  0  0
 53125  1  0  0  0  0
 53126  1  0  0  0  0
 55 56  1  0  0  0  0
 55 60  1  0  0  0  0
 55127  1  6  0  0  0
 56 57  1  0  0  0  0
 56128  1  0  0  0  0
 56129  1  0  0  0  0
 57 58  1  0  0  0  0
 57130  1  0  0  0  0
 57131  1  0  0  0  0
 58 59  1  0  0  0  0
 58132  1  0  0  0  0
 58133  1  0  0  0  0
 59134  1  0  0  0  0
 59135  1  0  0  0  0
M  END
$$$$