/media/chris/experiments/cd1a-new-docking/inputs/ligands/7ryo_ligand.pdb
 OpenBabel07032304133D

135137  0  0  1  0  0  0  0  0999 V2000
  -39.2043   59.3899   62.1545 N   0  0  0  0  0  0  0  0  0  0  0  0
  -36.3305   61.8410   70.6396 C   0  0  0  0  0  0  0  0  0  0  0  0
  -40.1500   57.4612   62.8468 O   0  0  0  0  0  0  0  0  0  0  0  0
  -36.1423   63.2872   70.2633 C   0  0  0  0  0  0  0  0  0  0  0  0
  -33.1324   57.6580   60.0424 N   0  0  0  0  0  0  0  0  0  0  0  0
  -34.5525   59.3022   60.6199 O   0  0  0  0  0  0  0  0  0  0  0  0
  -37.2188   64.1973   70.8262 C   0  0  0  0  0  0  0  0  0  0  0  0
  -33.5196   58.9769   57.4199 N   0  0  0  0  0  0  0  0  0  0  0  0
  -34.4196   61.0243   57.1341 O   0  0  0  0  0  0  0  0  0  0  0  0
  -37.0649   65.6619   70.4489 C   0  0  0  0  0  0  0  0  0  0  0  0
  -32.0339   51.0839   59.2857 N   0  0  0  0  0  0  0  0  0  0  0  0
  -36.3371   61.2223   55.4658 O   0  0  0  0  0  0  0  0  0  0  0  0
  -37.1169   65.9094   68.9476 C   0  0  0  0  0  0  0  0  0  0  0  0
  -32.1117   48.4721   56.7825 N   0  0  0  0  0  0  0  0  0  0  0  0
  -35.1244   55.1625   60.3520 O   0  0  0  0  0  0  0  0  0  0  0  0
  -38.4252   65.4864   68.2977 C   0  0  0  0  0  0  0  0  0  0  0  0
  -32.9598   54.5796   60.5876 O   0  0  0  0  0  0  0  0  0  0  0  0
  -38.7572   64.0138   68.4657 C   0  0  0  0  0  0  0  0  0  0  0  0
  -30.9912   53.0388   58.8950 O   0  0  0  0  0  0  0  0  0  0  0  0
  -40.0566   63.5895   67.8011 C   0  0  0  0  0  0  0  0  0  0  0  0
  -31.5207   48.5043   58.9459 O   0  0  0  0  0  0  0  0  0  0  0  0
  -40.3757   62.1205   67.9963 C   0  0  0  0  0  0  0  0  0  0  0  0
  -41.6653   61.7055   67.3146 C   0  0  0  0  0  0  0  0  0  0  0  0
  -42.0292   60.2460   67.5002 C   0  0  0  0  0  0  0  0  0  0  0  0
  -43.3133   59.8585   66.7933 C   0  0  0  0  0  0  0  0  0  0  0  0
  -43.6966   58.4007   66.9870 C   0  0  0  0  0  0  0  0  0  0  0  0
  -44.9727   58.0105   66.2651 C   0  0  0  0  0  0  0  0  0  0  0  0
  -44.9173   58.1829   64.7563 C   0  0  0  0  0  0  0  0  0  0  0  0
  -43.8427   57.3431   64.0876 C   0  0  0  0  0  0  0  0  0  0  0  0
  -42.4325   57.6406   64.5823 C   0  0  0  0  0  0  0  0  0  0  0  0
  -42.0565   59.0717   64.3565 C   0  0  0  0  0  0  0  0  0  0  0  0
  -41.0506   59.5426   63.6318 C   0  0  0  0  0  0  0  0  0  0  0  0
  -40.0967   58.7017   62.8746 C   0  0  0  0  0  0  0  0  0  0  0  0
  -38.2360   58.7337   61.2903 C   0  0  0  0  0  0  0  0  0  0  0  0
  -36.9560   58.4330   62.0390 C   0  0  0  0  0  0  0  0  0  0  0  0
  -35.8780   57.7610   61.2090 C   0  0  0  0  0  0  0  0  0  0  0  0
  -34.6110   57.4590   62.0020 C   0  0  0  0  0  0  0  0  0  0  0  0
  -33.5311   56.7980   61.1441 C   0  0  1  0  0  0  0  0  0  0  0  0
  -33.6908   58.8593   59.8752 C   0  0  0  0  0  0  0  0  0  0  0  0
  -33.2290   59.6964   58.6711 C   0  0  1  0  0  0  0  0  0  0  0  0
  -31.7240   59.9235   58.7758 C   0  0  0  0  0  0  0  0  0  0  0  0
  -33.9936   61.0199   58.5204 C   0  0  0  0  0  0  0  0  0  0  0  0
  -34.1604   59.7743   56.6694 C   0  0  0  0  0  0  0  0  0  0  0  0
  -34.6550   59.4830   55.3218 C   0  0  0  0  0  0  0  0  0  0  0  0
  -33.9800   58.5709   54.5096 C   0  0  0  0  0  0  0  0  0  0  0  0
  -34.2868   58.4680   53.1637 C   0  0  0  0  0  0  0  0  0  0  0  0
  -35.2636   59.2651   52.6078 C   0  0  0  0  0  0  0  0  0  0  0  0
  -35.9443   60.1803   53.3899 C   0  0  0  0  0  0  0  0  0  0  0  0
  -35.6487   60.3000   54.7442 C   0  0  0  0  0  0  0  0  0  0  0  0
  -33.9929   55.4382   60.6419 C   0  0  0  0  0  0  0  0  0  0  0  0
  -33.0303   53.3605   61.3991 C   0  0  2  0  0  0  0  0  0  0  0  0
  -33.1686   53.7680   62.8442 C   0  0  0  0  0  0  0  0  0  0  0  0
  -31.7364   52.6169   61.1306 C   0  0  0  0  0  0  0  0  0  0  0  0
  -31.5489   52.2678   59.6709 C   0  0  0  0  0  0  0  0  0  0  0  0
  -31.9339   50.6242   57.9116 C   0  0  1  0  0  0  0  0  0  0  0  0
  -30.6828   51.2119   57.2492 C   0  0  0  0  0  0  0  0  0  0  0  0
  -30.7213   51.1703   55.7254 C   0  0  0  0  0  0  0  0  0  0  0  0
  -30.8015   49.7859   55.1133 C   0  0  0  0  0  0  0  0  0  0  0  0
  -32.0772   49.0373   55.4379 C   0  0  0  0  0  0  0  0  0  0  0  0
  -31.8372   49.1068   57.9244 C   0  0  0  0  0  0  0  0  0  0  0  0
  -39.2028   60.3728   62.2112 H   0  0  0  0  0  0  0  0  0  0  0  0
  -35.5424   61.2561   70.2134 H   0  0  0  0  0  0  0  0  0  0  0  0
  -37.2724   61.4953   70.2677 H   0  0  0  0  0  0  0  0  0  0  0  0
  -36.3105   61.7441   71.7050 H   0  0  0  0  0  0  0  0  0  0  0  0
  -36.1550   63.3652   69.1962 H   0  0  0  0  0  0  0  0  0  0  0  0
  -35.2088   63.6046   70.6789 H   0  0  0  0  0  0  0  0  0  0  0  0
  -32.4418   57.3510   59.4115 H   0  0  0  0  0  0  0  0  0  0  0  0
  -37.1956   64.1226   71.8933 H   0  0  0  0  0  0  0  0  0  0  0  0
  -38.1461   63.8697   70.4046 H   0  0  0  0  0  0  0  0  0  0  0  0
  -36.1225   66.0096   70.8174 H   0  0  0  0  0  0  0  0  0  0  0  0
  -37.8889   66.1880   70.8840 H   0  0  0  0  0  0  0  0  0  0  0  0
  -32.4717   50.5067   59.9524 H   0  0  0  0  0  0  0  0  0  0  0  0
  -36.1618   61.3277   56.3802 H   0  0  0  0  0  0  0  0  0  0  0  0
  -36.3203   65.3622   68.4883 H   0  0  0  0  0  0  0  0  0  0  0  0
  -37.0262   66.9658   68.8038 H   0  0  0  0  0  0  0  0  0  0  0  0
  -32.3638   47.5232   56.8553 H   0  0  0  0  0  0  0  0  0  0  0  0
  -38.3639   65.6990   67.2508 H   0  0  0  0  0  0  0  0  0  0  0  0
  -39.2028   66.0343   68.7876 H   0  0  0  0  0  0  0  0  0  0  0  0
  -38.8310   63.8036   69.5122 H   0  0  0  0  0  0  0  0  0  0  0  0
  -37.9731   63.4648   67.9875 H   0  0  0  0  0  0  0  0  0  0  0  0
  -39.9813   63.7846   66.7518 H   0  0  0  0  0  0  0  0  0  0  0  0
  -40.8452   64.1495   68.2587 H   0  0  0  0  0  0  0  0  0  0  0  0
  -40.4649   61.9260   69.0447 H   0  0  0  0  0  0  0  0  0  0  0  0
  -39.5810   61.5559   67.5551 H   0  0  0  0  0  0  0  0  0  0  0  0
  -41.5658   61.8950   66.2662 H   0  0  0  0  0  0  0  0  0  0  0  0
  -42.4485   62.2759   67.7687 H   0  0  0  0  0  0  0  0  0  0  0  0
  -42.1453   60.0544   68.5464 H   0  0  0  0  0  0  0  0  0  0  0  0
  -41.2407   59.6637   67.0712 H   0  0  0  0  0  0  0  0  0  0  0  0
  -43.1913   60.0402   65.7459 H   0  0  0  0  0  0  0  0  0  0  0  0
  -44.0973   60.4491   67.2194 H   0  0  0  0  0  0  0  0  0  0  0  0
  -43.8310   58.2218   68.0333 H   0  0  0  0  0  0  0  0  0  0  0  0
  -42.9068   57.8095   66.5728 H   0  0  0  0  0  0  0  0  0  0  0  0
  -45.7695   58.6168   66.6423 H   0  0  0  0  0  0  0  0  0  0  0  0
  -45.1206   56.9667   66.4483 H   0  0  0  0  0  0  0  0  0  0  0  0
  -44.7248   59.2130   64.5403 H   0  0  0  0  0  0  0  0  0  0  0  0
  -45.8589   57.8548   64.3682 H   0  0  0  0  0  0  0  0  0  0  0  0
  -43.8768   57.5283   63.0343 H   0  0  0  0  0  0  0  0  0  0  0  0
  -44.0492   56.3218   64.3309 H   0  0  0  0  0  0  0  0  0  0  0  0
  -41.7418   57.0138   64.0580 H   0  0  0  0  0  0  0  0  0  0  0  0
  -42.4012   57.4498   65.6347 H   0  0  0  0  0  0  0  0  0  0  0  0
  -42.6511   59.7762   64.8202 H   0  0  0  0  0  0  0  0  0  0  0  0
  -40.9242   60.5661   63.5933 H   0  0  0  0  0  0  0  0  0  0  0  0
  -38.0148   59.3748   60.4627 H   0  0  0  0  0  0  0  0  0  0  0  0
  -38.6554   57.8106   60.9484 H   0  0  0  0  0  0  0  0  0  0  0  0
  -37.1937   57.7896   62.8603 H   0  0  0  0  0  0  0  0  0  0  0  0
  -36.5565   59.3772   62.3453 H   0  0  0  0  0  0  0  0  0  0  0  0
  -35.6238   58.4067   60.3945 H   0  0  0  0  0  0  0  0  0  0  0  0
  -36.2729   56.8255   60.8717 H   0  0  0  0  0  0  0  0  0  0  0  0
  -34.8590   56.8018   62.8091 H   0  0  0  0  0  0  0  0  0  0  0  0
  -34.2203   58.3886   62.3599 H   0  0  0  0  0  0  0  0  0  0  0  0
  -32.6704   56.6456   61.7612 H   0  0  0  0  0  0  0  0  0  0  0  0
  -31.2275   58.9813   58.8792 H   0  0  0  0  0  0  0  0  0  0  0  0
  -31.5138   60.5331   59.6296 H   0  0  0  0  0  0  0  0  0  0  0  0
  -31.3751   60.4153   57.8918 H   0  0  0  0  0  0  0  0  0  0  0  0
  -34.8376   61.0483   59.1775 H   0  0  0  0  0  0  0  0  0  0  0  0
  -33.3954   61.8713   58.7696 H   0  0  0  0  0  0  0  0  0  0  0  0
  -33.2467   57.9687   54.9153 H   0  0  0  0  0  0  0  0  0  0  0  0
  -33.7806   57.7899   52.5729 H   0  0  0  0  0  0  0  0  0  0  0  0
  -35.4880   59.1789   51.6042 H   0  0  0  0  0  0  0  0  0  0  0  0
  -36.6736   60.7762   52.9678 H   0  0  0  0  0  0  0  0  0  0  0  0
  -33.8635   52.7315   61.1646 H   0  0  0  0  0  0  0  0  0  0  0  0
  -32.3496   54.4007   63.1163 H   0  0  0  0  0  0  0  0  0  0  0  0
  -33.1657   52.8950   63.4628 H   0  0  0  0  0  0  0  0  0  0  0  0
  -34.0885   54.2976   62.9791 H   0  0  0  0  0  0  0  0  0  0  0  0
  -31.7387   51.7113   61.7005 H   0  0  0  0  0  0  0  0  0  0  0  0
  -30.9310   53.2629   61.4118 H   0  0  0  0  0  0  0  0  0  0  0  0
  -32.7934   50.9400   57.3580 H   0  0  0  0  0  0  0  0  0  0  0  0
  -29.8313   50.6554   57.5813 H   0  0  0  0  0  0  0  0  0  0  0  0
  -30.6321   52.2422   57.5336 H   0  0  0  0  0  0  0  0  0  0  0  0
  -29.8329   51.6415   55.3600 H   0  0  0  0  0  0  0  0  0  0  0  0
  -31.6229   51.6708   55.4401 H   0  0  0  0  0  0  0  0  0  0  0  0
  -29.9741   49.2111   55.4736 H   0  0  0  0  0  0  0  0  0  0  0  0
  -30.7834   49.9173   54.0516 H   0  0  0  0  0  0  0  0  0  0  0  0
  -32.8991   49.7150   55.3373 H   0  0  0  0  0  0  0  0  0  0  0  0
  -32.1336   48.2144   54.7562 H   0  0  0  0  0  0  0  0  0  0  0  0
  1 33  1  0  0  0  0
  1 34  1  0  0  0  0
  1 61  1  0  0  0  0
  2  4  1  0  0  0  0
  2 62  1  0  0  0  0
  2 63  1  0  0  0  0
  2 64  1  0  0  0  0
  3 33  2  0  0  0  0
  4  7  1  0  0  0  0
  4 65  1  0  0  0  0
  4 66  1  0  0  0  0
  5 38  1  0  0  0  0
  5 39  1  0  0  0  0
  5 67  1  0  0  0  0
  6 39  2  0  0  0  0
  7 10  1  0  0  0  0
  7 68  1  0  0  0  0
  7 69  1  0  0  0  0
  8 40  1  0  0  0  0
  8 43  2  0  0  0  0
  9 42  1  0  0  0  0
  9 43  1  0  0  0  0
 10 13  1  0  0  0  0
 10 70  1  0  0  0  0
 10 71  1  0  0  0  0
 11 54  1  0  0  0  0
 11 55  1  0  0  0  0
 11 72  1  0  0  0  0
 12 49  1  0  0  0  0
 12 73  1  0  0  0  0
 13 16  1  0  0  0  0
 13 74  1  0  0  0  0
 13 75  1  0  0  0  0
 14 59  1  0  0  0  0
 14 60  1  0  0  0  0
 14 76  1  0  0  0  0
 15 50  2  0  0  0  0
 16 18  1  0  0  0  0
 16 77  1  0  0  0  0
 16 78  1  0  0  0  0
 17 50  1  0  0  0  0
 17 51  1  0  0  0  0
 18 20  1  0  0  0  0
 18 79  1  0  0  0  0
 18 80  1  0  0  0  0
 19 54  2  0  0  0  0
 20 22  1  0  0  0  0
 20 81  1  0  0  0  0
 20 82  1  0  0  0  0
 21 60  2  0  0  0  0
 22 23  1  0  0  0  0
 22 83  1  0  0  0  0
 22 84  1  0  0  0  0
 23 24  1  0  0  0  0
 23 85  1  0  0  0  0
 23 86  1  0  0  0  0
 24 25  1  0  0  0  0
 24 87  1  0  0  0  0
 24 88  1  0  0  0  0
 25 26  1  0  0  0  0
 25 89  1  0  0  0  0
 25 90  1  0  0  0  0
 26 27  1  0  0  0  0
 26 91  1  0  0  0  0
 26 92  1  0  0  0  0
 27 28  1  0  0  0  0
 27 93  1  0  0  0  0
 27 94  1  0  0  0  0
 28 29  1  0  0  0  0
 28 95  1  0  0  0  0
 28 96  1  0  0  0  0
 29 30  1  0  0  0  0
 29 97  1  0  0  0  0
 29 98  1  0  0  0  0
 30 31  1  0  0  0  0
 30 99  1  0  0  0  0
 30100  1  0  0  0  0
 31 32  2  0  0  0  0
 31101  1  0  0  0  0
 32 33  1  0  0  0  0
 32102  1  0  0  0  0
 34 35  1  0  0  0  0
 34103  1  0  0  0  0
 34104  1  0  0  0  0
 35 36  1  0  0  0  0
 35105  1  0  0  0  0
 35106  1  0  0  0  0
 36 37  1  0  0  0  0
 36107  1  0  0  0  0
 36108  1  0  0  0  0
 37 38  1  0  0  0  0
 37109  1  0  0  0  0
 37110  1  0  0  0  0
 38 50  1  0  0  0  0
 38111  1  1  0  0  0
 40 39  1  1  0  0  0
 40 41  1  0  0  0  0
 40 42  1  0  0  0  0
 41112  1  0  0  0  0
 41113  1  0  0  0  0
 41114  1  0  0  0  0
 42115  1  0  0  0  0
 42116  1  0  0  0  0
 43 44  1  0  0  0  0
 44 45  2  0  0  0  0
 44 49  1  0  0  0  0
 45 46  1  0  0  0  0
 45117  1  0  0  0  0
 46 47  2  0  0  0  0
 46118  1  0  0  0  0
 47 48  1  0  0  0  0
 47119  1  0  0  0  0
 48 49  2  0  0  0  0
 48120  1  0  0  0  0
 51 52  1  0  0  0  0
 51 53  1  0  0  0  0
 51121  1  6  0  0  0
 52122  1  0  0  0  0
 52123  1  0  0  0  0
 52124  1  0  0  0  0
 53 54  1  0  0  0  0
 53125  1  0  0  0  0
 53126  1  0  0  0  0
 55 56  1  0  0  0  0
 55 60  1  0  0  0  0
 55127  1  6  0  0  0
 56 57  1  0  0  0  0
 56128  1  0  0  0  0
 56129  1  0  0  0  0
 57 58  1  0  0  0  0
 57130  1  0  0  0  0
 57131  1  0  0  0  0
 58 59  1  0  0  0  0
 58132  1  0  0  0  0
 58133  1  0  0  0  0
 59134  1  0  0  0  0
 59135  1  0  0  0  0
M  END
$$$$