/media/chris/experiments/cd1a-new-docking/inputs/ligands/7ryo_ligand.pdb
 OpenBabel07032304133D

135137  0  0  1  0  0  0  0  0999 V2000
  -37.9843   59.6092   60.1567 N   0  0  0  0  0  0  0  0  0  0  0  0
  -24.2699   65.4295   48.8102 C   0  0  0  0  0  0  0  0  0  0  0  0
  -37.1331   61.2779   61.4155 O   0  0  0  0  0  0  0  0  0  0  0  0
  -24.8537   66.0274   50.0633 C   0  0  0  0  0  0  0  0  0  0  0  0
  -33.1324   57.6580   60.0424 N   0  0  0  0  0  0  0  0  0  0  0  0
  -35.2034   57.7505   59.1729 O   0  0  0  0  0  0  0  0  0  0  0  0
  -25.6680   65.0372   50.8760 C   0  0  0  0  0  0  0  0  0  0  0  0
  -32.4979   58.2313   57.2076 N   0  0  0  0  0  0  0  0  0  0  0  0
  -33.9877   58.9649   55.6827 O   0  0  0  0  0  0  0  0  0  0  0  0
  -26.2845   65.6165   52.1391 C   0  0  0  0  0  0  0  0  0  0  0  0
  -35.9449   53.6934   56.0210 N   0  0  0  0  0  0  0  0  0  0  0  0
  -32.6916   59.5842   53.4213 O   0  0  0  0  0  0  0  0  0  0  0  0
  -27.0816   64.6002   52.9452 C   0  0  0  0  0  0  0  0  0  0  0  0
  -35.2488   50.4942   54.4802 N   0  0  0  0  0  0  0  0  0  0  0  0
  -33.8850   54.4096   61.2508 O   0  0  0  0  0  0  0  0  0  0  0  0
  -28.2373   63.9752   52.1791 C   0  0  0  0  0  0  0  0  0  0  0  0
  -34.5209   55.5446   59.4101 O   0  0  0  0  0  0  0  0  0  0  0  0
  -29.0477   62.9725   52.9822 C   0  0  0  0  0  0  0  0  0  0  0  0
  -34.0989   54.6804   56.8456 O   0  0  0  0  0  0  0  0  0  0  0  0
  -29.7062   63.5556   54.2218 C   0  0  0  0  0  0  0  0  0  0  0  0
  -35.9588   51.0893   56.5228 O   0  0  0  0  0  0  0  0  0  0  0  0
  -30.4951   62.5335   55.0161 C   0  0  0  0  0  0  0  0  0  0  0  0
  -31.1612   63.1306   56.2408 C   0  0  0  0  0  0  0  0  0  0  0  0
  -30.2017   63.7637   57.2284 C   0  0  0  0  0  0  0  0  0  0  0  0
  -30.8958   64.3360   58.4488 C   0  0  0  0  0  0  0  0  0  0  0  0
  -31.9199   65.4088   58.1173 C   0  0  0  0  0  0  0  0  0  0  0  0
  -33.0481   64.9142   57.2318 C   0  0  0  0  0  0  0  0  0  0  0  0
  -33.8714   63.7885   57.8355 C   0  0  0  0  0  0  0  0  0  0  0  0
  -34.5606   64.1685   59.1346 C   0  0  0  0  0  0  0  0  0  0  0  0
  -35.3739   63.0381   59.7533 C   0  0  0  0  0  0  0  0  0  0  0  0
  -36.4467   62.5562   58.8273 C   0  0  0  0  0  0  0  0  0  0  0  0
  -37.3399   61.6008   59.0464 C   0  0  0  0  0  0  0  0  0  0  0  0
  -37.4477   60.8255   60.3025 C   0  0  0  0  0  0  0  0  0  0  0  0
  -38.2360   58.7337   61.2903 C   0  0  0  0  0  0  0  0  0  0  0  0
  -36.9560   58.4330   62.0390 C   0  0  0  0  0  0  0  0  0  0  0  0
  -35.8780   57.7610   61.2090 C   0  0  0  0  0  0  0  0  0  0  0  0
  -34.6110   57.4590   62.0020 C   0  0  0  0  0  0  0  0  0  0  0  0
  -33.5311   56.7980   61.1441 C   0  0  1  0  0  0  0  0  0  0  0  0
  -34.0234   58.0662   59.1357 C   0  0  0  0  0  0  0  0  0  0  0  0
  -33.5145   58.9550   57.9889 C   0  0  1  0  0  0  0  0  0  0  0  0
  -32.8843   60.2121   58.5810 C   0  0  0  0  0  0  0  0  0  0  0  0
  -34.5984   59.2961   56.9557 C   0  0  0  0  0  0  0  0  0  0  0  0
  -32.8468   58.2943   55.9895 C   0  0  0  0  0  0  0  0  0  0  0  0
  -32.1281   57.7119   54.8538 C   0  0  0  0  0  0  0  0  0  0  0  0
  -31.3620   56.5584   55.0265 C   0  0  0  0  0  0  0  0  0  0  0  0
  -30.4910   56.1389   54.0357 C   0  0  0  0  0  0  0  0  0  0  0  0
  -30.3690   56.8552   52.8649 C   0  0  0  0  0  0  0  0  0  0  0  0
  -31.1136   58.0044   52.6707 C   0  0  0  0  0  0  0  0  0  0  0  0
  -31.9928   58.4431   53.6558 C   0  0  0  0  0  0  0  0  0  0  0  0
  -33.9929   55.4382   60.6419 C   0  0  0  0  0  0  0  0  0  0  0  0
  -35.9156   55.1352   59.2178 C   0  0  2  0  0  0  0  0  0  0  0  0
  -36.0348   53.6834   59.6071 C   0  0  0  0  0  0  0  0  0  0  0  0
  -36.2084   55.3642   57.7477 C   0  0  0  0  0  0  0  0  0  0  0  0
  -35.3196   54.5484   56.8354 C   0  0  0  0  0  0  0  0  0  0  0  0
  -35.2176   52.8546   55.0845 C   0  0  1  0  0  0  0  0  0  0  0  0
  -33.7121   53.1181   55.2007 C   0  0  0  0  0  0  0  0  0  0  0  0
  -32.9141   52.6480   53.9893 C   0  0  0  0  0  0  0  0  0  0  0  0
  -32.9697   51.1591   53.7104 C   0  0  0  0  0  0  0  0  0  0  0  0
  -34.3472   50.6480   53.3435 C   0  0  0  0  0  0  0  0  0  0  0  0
  -35.5070   51.4012   55.4249 C   0  0  0  0  0  0  0  0  0  0  0  0
  -38.2165   59.2963   59.2526 H   0  0  0  0  0  0  0  0  0  0  0  0
  -23.7105   66.1760   48.2860 H   0  0  0  0  0  0  0  0  0  0  0  0
  -25.0602   65.0710   48.1844 H   0  0  0  0  0  0  0  0  0  0  0  0
  -23.6241   64.6169   49.0700 H   0  0  0  0  0  0  0  0  0  0  0  0
  -25.4881   66.8434   49.7870 H   0  0  0  0  0  0  0  0  0  0  0  0
  -24.0351   66.3436   50.6756 H   0  0  0  0  0  0  0  0  0  0  0  0
  -32.1934   57.9432   59.9638 H   0  0  0  0  0  0  0  0  0  0  0  0
  -25.0267   64.2282   51.1576 H   0  0  0  0  0  0  0  0  0  0  0  0
  -26.4816   64.7282   50.2537 H   0  0  0  0  0  0  0  0  0  0  0  0
  -26.9383   66.4166   51.8610 H   0  0  0  0  0  0  0  0  0  0  0  0
  -25.4787   65.9491   52.7596 H   0  0  0  0  0  0  0  0  0  0  0  0
  -36.9267   53.6301   56.0568 H   0  0  0  0  0  0  0  0  0  0  0  0
  -33.2919   59.9065   54.0646 H   0  0  0  0  0  0  0  0  0  0  0  0
  -27.4770   65.0913   53.8096 H   0  0  0  0  0  0  0  0  0  0  0  0
  -26.4094   63.8061   53.1950 H   0  0  0  0  0  0  0  0  0  0  0  0
  -35.7158   49.6310   54.5586 H   0  0  0  0  0  0  0  0  0  0  0  0
  -27.8393   63.4745   51.3213 H   0  0  0  0  0  0  0  0  0  0  0  0
  -28.9028   64.7728   51.9225 H   0  0  0  0  0  0  0  0  0  0  0  0
  -28.3950   62.1821   53.2889 H   0  0  0  0  0  0  0  0  0  0  0  0
  -29.8373   62.6335   52.3446 H   0  0  0  0  0  0  0  0  0  0  0  0
  -30.3711   64.3369   53.9179 H   0  0  0  0  0  0  0  0  0  0  0  0
  -28.9245   63.9170   54.8567 H   0  0  0  0  0  0  0  0  0  0  0  0
  -29.8293   61.7580   55.3326 H   0  0  0  0  0  0  0  0  0  0  0  0
  -31.2681   62.1564   54.3796 H   0  0  0  0  0  0  0  0  0  0  0  0
  -31.6950   62.3520   56.7447 H   0  0  0  0  0  0  0  0  0  0  0  0
  -31.7999   63.9141   55.8900 H   0  0  0  0  0  0  0  0  0  0  0  0
  -29.6761   64.5537   56.7339 H   0  0  0  0  0  0  0  0  0  0  0  0
  -29.5407   62.9943   57.5689 H   0  0  0  0  0  0  0  0  0  0  0  0
  -30.1541   64.7629   59.0910 H   0  0  0  0  0  0  0  0  0  0  0  0
  -31.4237   63.5313   58.9166 H   0  0  0  0  0  0  0  0  0  0  0  0
  -31.4204   66.2100   57.6138 H   0  0  0  0  0  0  0  0  0  0  0  0
  -32.3588   65.7219   59.0415 H   0  0  0  0  0  0  0  0  0  0  0  0
  -32.6244   64.5639   56.3139 H   0  0  0  0  0  0  0  0  0  0  0  0
  -33.7140   65.7404   57.0949 H   0  0  0  0  0  0  0  0  0  0  0  0
  -33.2223   62.9596   58.0267 H   0  0  0  0  0  0  0  0  0  0  0  0
  -34.6401   63.5491   57.1307 H   0  0  0  0  0  0  0  0  0  0  0  0
  -35.2183   64.9898   58.9398 H   0  0  0  0  0  0  0  0  0  0  0  0
  -33.7905   64.4174   59.8345 H   0  0  0  0  0  0  0  0  0  0  0  0
  -35.8277   63.3912   60.6556 H   0  0  0  0  0  0  0  0  0  0  0  0
  -34.7122   62.2208   59.9509 H   0  0  0  0  0  0  0  0  0  0  0  0
  -36.4973   63.0233   57.9085 H   0  0  0  0  0  0  0  0  0  0  0  0
  -38.0058   61.3828   58.2887 H   0  0  0  0  0  0  0  0  0  0  0  0
  -38.6582   57.8163   60.9368 H   0  0  0  0  0  0  0  0  0  0  0  0
  -38.9129   59.2259   61.9570 H   0  0  0  0  0  0  0  0  0  0  0  0
  -37.1937   57.7896   62.8603 H   0  0  0  0  0  0  0  0  0  0  0  0
  -36.5565   59.3772   62.3453 H   0  0  0  0  0  0  0  0  0  0  0  0
  -35.6238   58.4067   60.3945 H   0  0  0  0  0  0  0  0  0  0  0  0
  -36.2729   56.8255   60.8717 H   0  0  0  0  0  0  0  0  0  0  0  0
  -34.8590   56.8018   62.8091 H   0  0  0  0  0  0  0  0  0  0  0  0
  -34.2203   58.3886   62.3599 H   0  0  0  0  0  0  0  0  0  0  0  0
  -32.6704   56.6456   61.7612 H   0  0  0  0  0  0  0  0  0  0  0  0
  -32.1365   59.9342   59.2941 H   0  0  0  0  0  0  0  0  0  0  0  0
  -33.6395   60.7955   59.0650 H   0  0  0  0  0  0  0  0  0  0  0  0
  -32.4351   60.7880   57.7991 H   0  0  0  0  0  0  0  0  0  0  0  0
  -35.4779   58.7091   57.1196 H   0  0  0  0  0  0  0  0  0  0  0  0
  -34.9103   60.3182   57.0088 H   0  0  0  0  0  0  0  0  0  0  0  0
  -31.4454   56.0140   55.8992 H   0  0  0  0  0  0  0  0  0  0  0  0
  -29.9295   55.2844   54.1748 H   0  0  0  0  0  0  0  0  0  0  0  0
  -29.7198   56.5329   52.1303 H   0  0  0  0  0  0  0  0  0  0  0  0
  -31.0167   58.5380   51.7927 H   0  0  0  0  0  0  0  0  0  0  0  0
  -36.6143   55.6833   59.8147 H   0  0  0  0  0  0  0  0  0  0  0  0
  -35.3481   53.1014   59.0286 H   0  0  0  0  0  0  0  0  0  0  0  0
  -37.0330   53.3453   59.4221 H   0  0  0  0  0  0  0  0  0  0  0  0
  -35.8079   53.5732   60.6470 H   0  0  0  0  0  0  0  0  0  0  0  0
  -36.0625   56.4012   57.5282 H   0  0  0  0  0  0  0  0  0  0  0  0
  -37.2179   55.0572   57.5702 H   0  0  0  0  0  0  0  0  0  0  0  0
  -35.5261   53.0734   54.0835 H   0  0  0  0  0  0  0  0  0  0  0  0
  -33.3452   52.6073   56.0663 H   0  0  0  0  0  0  0  0  0  0  0  0
  -33.5836   54.1782   55.2685 H   0  0  0  0  0  0  0  0  0  0  0  0
  -31.8900   52.9165   54.1445 H   0  0  0  0  0  0  0  0  0  0  0  0
  -33.3602   53.1231   53.1407 H   0  0  0  0  0  0  0  0  0  0  0  0
  -32.6420   50.6408   54.5873 H   0  0  0  0  0  0  0  0  0  0  0  0
  -32.3398   50.9807   52.8641 H   0  0  0  0  0  0  0  0  0  0  0  0
  -34.7890   51.3379   52.6552 H   0  0  0  0  0  0  0  0  0  0  0  0
  -34.2123   49.6733   52.9231 H   0  0  0  0  0  0  0  0  0  0  0  0
  1 33  1  0  0  0  0
  1 34  1  0  0  0  0
  1 61  1  0  0  0  0
  2  4  1  0  0  0  0
  2 62  1  0  0  0  0
  2 63  1  0  0  0  0
  2 64  1  0  0  0  0
  3 33  2  0  0  0  0
  4  7  1  0  0  0  0
  4 65  1  0  0  0  0
  4 66  1  0  0  0  0
  5 38  1  0  0  0  0
  5 39  1  0  0  0  0
  5 67  1  0  0  0  0
  6 39  2  0  0  0  0
  7 10  1  0  0  0  0
  7 68  1  0  0  0  0
  7 69  1  0  0  0  0
  8 40  1  0  0  0  0
  8 43  2  0  0  0  0
  9 42  1  0  0  0  0
  9 43  1  0  0  0  0
 10 13  1  0  0  0  0
 10 70  1  0  0  0  0
 10 71  1  0  0  0  0
 11 54  1  0  0  0  0
 11 55  1  0  0  0  0
 11 72  1  0  0  0  0
 12 49  1  0  0  0  0
 12 73  1  0  0  0  0
 13 16  1  0  0  0  0
 13 74  1  0  0  0  0
 13 75  1  0  0  0  0
 14 59  1  0  0  0  0
 14 60  1  0  0  0  0
 14 76  1  0  0  0  0
 15 50  2  0  0  0  0
 16 18  1  0  0  0  0
 16 77  1  0  0  0  0
 16 78  1  0  0  0  0
 17 50  1  0  0  0  0
 17 51  1  0  0  0  0
 18 20  1  0  0  0  0
 18 79  1  0  0  0  0
 18 80  1  0  0  0  0
 19 54  2  0  0  0  0
 20 22  1  0  0  0  0
 20 81  1  0  0  0  0
 20 82  1  0  0  0  0
 21 60  2  0  0  0  0
 22 23  1  0  0  0  0
 22 83  1  0  0  0  0
 22 84  1  0  0  0  0
 23 24  1  0  0  0  0
 23 85  1  0  0  0  0
 23 86  1  0  0  0  0
 24 25  1  0  0  0  0
 24 87  1  0  0  0  0
 24 88  1  0  0  0  0
 25 26  1  0  0  0  0
 25 89  1  0  0  0  0
 25 90  1  0  0  0  0
 26 27  1  0  0  0  0
 26 91  1  0  0  0  0
 26 92  1  0  0  0  0
 27 28  1  0  0  0  0
 27 93  1  0  0  0  0
 27 94  1  0  0  0  0
 28 29  1  0  0  0  0
 28 95  1  0  0  0  0
 28 96  1  0  0  0  0
 29 30  1  0  0  0  0
 29 97  1  0  0  0  0
 29 98  1  0  0  0  0
 30 31  1  0  0  0  0
 30 99  1  0  0  0  0
 30100  1  0  0  0  0
 31 32  2  0  0  0  0
 31101  1  0  0  0  0
 32 33  1  0  0  0  0
 32102  1  0  0  0  0
 34 35  1  0  0  0  0
 34103  1  0  0  0  0
 34104  1  0  0  0  0
 35 36  1  0  0  0  0
 35105  1  0  0  0  0
 35106  1  0  0  0  0
 36 37  1  0  0  0  0
 36107  1  0  0  0  0
 36108  1  0  0  0  0
 37 38  1  0  0  0  0
 37109  1  0  0  0  0
 37110  1  0  0  0  0
 38 50  1  0  0  0  0
 38111  1  1  0  0  0
 40 39  1  1  0  0  0
 40 41  1  0  0  0  0
 40 42  1  0  0  0  0
 41112  1  0  0  0  0
 41113  1  0  0  0  0
 41114  1  0  0  0  0
 42115  1  0  0  0  0
 42116  1  0  0  0  0
 43 44  1  0  0  0  0
 44 45  2  0  0  0  0
 44 49  1  0  0  0  0
 45 46  1  0  0  0  0
 45117  1  0  0  0  0
 46 47  2  0  0  0  0
 46118  1  0  0  0  0
 47 48  1  0  0  0  0
 47119  1  0  0  0  0
 48 49  2  0  0  0  0
 48120  1  0  0  0  0
 51 52  1  0  0  0  0
 51 53  1  0  0  0  0
 51121  1  1  0  0  0
 52122  1  0  0  0  0
 52123  1  0  0  0  0
 52124  1  0  0  0  0
 53 54  1  0  0  0  0
 53125  1  0  0  0  0
 53126  1  0  0  0  0
 55 56  1  0  0  0  0
 55 60  1  0  0  0  0
 55127  1  6  0  0  0
 56 57  1  0  0  0  0
 56128  1  0  0  0  0
 56129  1  0  0  0  0
 57 58  1  0  0  0  0
 57130  1  0  0  0  0
 57131  1  0  0  0  0
 58 59  1  0  0  0  0
 58132  1  0  0  0  0
 58133  1  0  0  0  0
 59134  1  0  0  0  0
 59135  1  0  0  0  0
M  END
$$$$