/media/chris/experiments/cd1a-new-docking/inputs/ligands/7ryo_ligand.pdb
 OpenBabel07032304133D

135137  0  0  1  0  0  0  0  0999 V2000
  -38.4618   58.3450   63.9648 N   0  0  0  0  0  0  0  0  0  0  0  0
  -35.4355   47.6776   61.7267 C   0  0  0  0  0  0  0  0  0  0  0  0
  -39.8911   58.3837   62.2185 O   0  0  0  0  0  0  0  0  0  0  0  0
  -34.8293   48.6187   62.7343 C   0  0  0  0  0  0  0  0  0  0  0  0
  -34.8919   59.3849   63.5113 N   0  0  0  0  0  0  0  0  0  0  0  0
  -33.4531   61.0520   63.9634 O   0  0  0  0  0  0  0  0  0  0  0  0
  -35.7661   49.7399   63.1458 C   0  0  0  0  0  0  0  0  0  0  0  0
  -35.3901   62.6052   65.1180 N   0  0  0  0  0  0  0  0  0  0  0  0
  -37.5863   62.2700   64.7339 O   0  0  0  0  0  0  0  0  0  0  0  0
  -37.0570   49.2733   63.7991 C   0  0  0  0  0  0  0  0  0  0  0  0
  -29.4491   58.9274   57.1785 N   0  0  0  0  0  0  0  0  0  0  0  0
  -34.9009   65.1194   66.1689 O   0  0  0  0  0  0  0  0  0  0  0  0
  -36.8357   48.4843   65.0823 C   0  0  0  0  0  0  0  0  0  0  0  0
  -28.8538   59.1010   53.6135 N   0  0  0  0  0  0  0  0  0  0  0  0
  -33.8578   60.8117   61.3896 O   0  0  0  0  0  0  0  0  0  0  0  0
  -36.1212   49.2679   66.1726 C   0  0  0  0  0  0  0  0  0  0  0  0
  -32.6946   59.0310   60.6435 O   0  0  0  0  0  0  0  0  0  0  0  0
  -36.8595   50.5136   66.6307 C   0  0  0  0  0  0  0  0  0  0  0  0
  -31.1858   60.3290   56.8936 O   0  0  0  0  0  0  0  0  0  0  0  0
  -38.2335   50.2406   67.2203 C   0  0  0  0  0  0  0  0  0  0  0  0
  -29.6594   57.4952   54.9563 O   0  0  0  0  0  0  0  0  0  0  0  0
  -38.9582   51.4992   67.6548 C   0  0  0  0  0  0  0  0  0  0  0  0
  -39.2012   52.4609   66.5076 C   0  0  0  0  0  0  0  0  0  0  0  0
  -40.0536   51.8969   65.3886 C   0  0  0  0  0  0  0  0  0  0  0  0
  -40.2640   52.8756   64.2499 C   0  0  0  0  0  0  0  0  0  0  0  0
  -40.9400   54.1678   64.6772 C   0  0  0  0  0  0  0  0  0  0  0  0
  -41.1651   55.1389   63.5336 C   0  0  0  0  0  0  0  0  0  0  0  0
  -41.8250   56.4456   63.9413 C   0  0  0  0  0  0  0  0  0  0  0  0
  -42.0574   57.3973   62.7805 C   0  0  0  0  0  0  0  0  0  0  0  0
  -42.7034   58.7165   63.1862 C   0  0  0  0  0  0  0  0  0  0  0  0
  -41.8538   59.4736   64.1585 C   0  0  0  0  0  0  0  0  0  0  0  0
  -40.5322   59.4572   64.2670 C   0  0  0  0  0  0  0  0  0  0  0  0
  -39.6292   58.6694   63.3984 C   0  0  0  0  0  0  0  0  0  0  0  0
  -37.4201   57.6362   63.2386 C   0  0  0  0  0  0  0  0  0  0  0  0
  -36.9560   58.4330   62.0390 C   0  0  0  0  0  0  0  0  0  0  0  0
  -35.8780   57.7610   61.2090 C   0  0  0  0  0  0  0  0  0  0  0  0
  -34.6110   57.4590   62.0020 C   0  0  0  0  0  0  0  0  0  0  0  0
  -33.9807   58.7203   62.5945 C   0  0  1  0  0  0  0  0  0  0  0  0
  -34.5389   60.5158   64.1271 C   0  0  0  0  0  0  0  0  0  0  0  0
  -35.5524   61.1420   65.0991 C   0  0  1  0  0  0  0  0  0  0  0  0
  -35.2953   60.5954   66.5002 C   0  0  0  0  0  0  0  0  0  0  0  0
  -37.0130   60.9395   64.6700 C   0  0  0  0  0  0  0  0  0  0  0  0
  -36.5346   63.1117   64.9105 C   0  0  0  0  0  0  0  0  0  0  0  0
  -36.8481   64.5411   64.8464 C   0  0  0  0  0  0  0  0  0  0  0  0
  -37.8913   64.9940   64.0378 C   0  0  0  0  0  0  0  0  0  0  0  0
  -38.0426   66.3453   63.7779 C   0  0  0  0  0  0  0  0  0  0  0  0
  -37.1647   67.2616   64.3149 C   0  0  0  0  0  0  0  0  0  0  0  0
  -36.1197   66.8384   65.1158 C   0  0  0  0  0  0  0  0  0  0  0  0
  -35.9499   65.4843   65.3868 C   0  0  0  0  0  0  0  0  0  0  0  0
  -33.5193   59.6651   61.4950 C   0  0  0  0  0  0  0  0  0  0  0  0
  -32.1659   59.7847   59.5024 C   0  0  2  0  0  0  0  0  0  0  0  0
  -33.3336   60.2698   58.6809 C   0  0  0  0  0  0  0  0  0  0  0  0
  -31.2900   58.8093   58.7404 C   0  0  0  0  0  0  0  0  0  0  0  0
  -30.6389   59.4280   57.5234 C   0  0  0  0  0  0  0  0  0  0  0  0
  -28.7151   59.4187   56.0255 C   0  0  1  0  0  0  0  0  0  0  0  0
  -27.2071   59.2812   56.2634 C   0  0  0  0  0  0  0  0  0  0  0  0
  -26.3613   60.1577   55.3460 C   0  0  0  0  0  0  0  0  0  0  0  0
  -26.4914   59.8659   53.8642 C   0  0  0  0  0  0  0  0  0  0  0  0
  -27.8707   60.1320   53.2986 C   0  0  0  0  0  0  0  0  0  0  0  0
  -29.1170   58.5876   54.8173 C   0  0  0  0  0  0  0  0  0  0  0  0
  -38.3025   58.5942   64.9038 H   0  0  0  0  0  0  0  0  0  0  0  0
  -34.7271   46.9145   61.4802 H   0  0  0  0  0  0  0  0  0  0  0  0
  -35.6961   48.2213   60.8427 H   0  0  0  0  0  0  0  0  0  0  0  0
  -36.3138   47.2286   62.1413 H   0  0  0  0  0  0  0  0  0  0  0  0
  -33.9481   49.0512   62.3085 H   0  0  0  0  0  0  0  0  0  0  0  0
  -34.6129   48.0472   63.6127 H   0  0  0  0  0  0  0  0  0  0  0  0
  -35.7805   58.9963   63.6804 H   0  0  0  0  0  0  0  0  0  0  0  0
  -36.0182   50.3029   62.2715 H   0  0  0  0  0  0  0  0  0  0  0  0
  -35.2450   50.3188   63.8795 H   0  0  0  0  0  0  0  0  0  0  0  0
  -37.5826   48.6512   63.1051 H   0  0  0  0  0  0  0  0  0  0  0  0
  -37.6134   50.1494   64.0595 H   0  0  0  0  0  0  0  0  0  0  0  0
  -29.0588   58.2048   57.7215 H   0  0  0  0  0  0  0  0  0  0  0  0
  -34.7587   64.2153   66.3701 H   0  0  0  0  0  0  0  0  0  0  0  0
  -36.2495   47.6200   64.8494 H   0  0  0  0  0  0  0  0  0  0  0  0
  -37.8036   48.2340   65.4636 H   0  0  0  0  0  0  0  0  0  0  0  0
  -29.3781   58.7469   52.8592 H   0  0  0  0  0  0  0  0  0  0  0  0
  -35.1630   49.5640   65.7997 H   0  0  0  0  0  0  0  0  0  0  0  0
  -36.0540   48.6207   67.0221 H   0  0  0  0  0  0  0  0  0  0  0  0
  -36.9784   51.1623   65.7882 H   0  0  0  0  0  0  0  0  0  0  0  0
  -36.2713   50.9510   67.4102 H   0  0  0  0  0  0  0  0  0  0  0  0
  -38.1176   49.6037   68.0723 H   0  0  0  0  0  0  0  0  0  0  0  0
  -38.8231   49.7830   66.4535 H   0  0  0  0  0  0  0  0  0  0  0  0
  -38.3684   51.9945   68.3975 H   0  0  0  0  0  0  0  0  0  0  0  0
  -39.9132   51.2060   68.0381 H   0  0  0  0  0  0  0  0  0  0  0  0
  -38.2528   52.7399   66.0980 H   0  0  0  0  0  0  0  0  0  0  0  0
  -39.7402   53.2913   66.9137 H   0  0  0  0  0  0  0  0  0  0  0  0
  -41.0091   51.6306   65.7896 H   0  0  0  0  0  0  0  0  0  0  0  0
  -39.5362   51.0496   64.9895 H   0  0  0  0  0  0  0  0  0  0  0  0
  -40.8731   52.4045   63.5068 H   0  0  0  0  0  0  0  0  0  0  0  0
  -39.2958   53.1359   63.8761 H   0  0  0  0  0  0  0  0  0  0  0  0
  -40.3250   54.6453   65.4111 H   0  0  0  0  0  0  0  0  0  0  0  0
  -41.9032   53.9068   65.0633 H   0  0  0  0  0  0  0  0  0  0  0  0
  -41.7887   54.6614   62.8068 H   0  0  0  0  0  0  0  0  0  0  0  0
  -40.1979   55.3909   63.1517 H   0  0  0  0  0  0  0  0  0  0  0  0
  -41.1969   56.9327   64.6576 H   0  0  0  0  0  0  0  0  0  0  0  0
  -42.7858   56.2001   64.3430 H   0  0  0  0  0  0  0  0  0  0  0  0
  -42.6951   56.9138   62.0704 H   0  0  0  0  0  0  0  0  0  0  0  0
  -41.0961   57.6333   62.3740 H   0  0  0  0  0  0  0  0  0  0  0  0
  -43.6514   58.5134   63.6389 H   0  0  0  0  0  0  0  0  0  0  0  0
  -42.8184   59.3155   62.3071 H   0  0  0  0  0  0  0  0  0  0  0  0
  -42.3567   60.0811   64.8242 H   0  0  0  0  0  0  0  0  0  0  0  0
  -40.1038   60.0335   65.0082 H   0  0  0  0  0  0  0  0  0  0  0  0
  -37.8045   56.6947   62.9057 H   0  0  0  0  0  0  0  0  0  0  0  0
  -36.5868   57.4908   63.8939 H   0  0  0  0  0  0  0  0  0  0  0  0
  -36.5724   59.3687   62.3887 H   0  0  0  0  0  0  0  0  0  0  0  0
  -37.8072   58.5391   61.3994 H   0  0  0  0  0  0  0  0  0  0  0  0
  -35.6238   58.4067   60.3945 H   0  0  0  0  0  0  0  0  0  0  0  0
  -36.2729   56.8255   60.8717 H   0  0  0  0  0  0  0  0  0  0  0  0
  -33.9009   56.9930   61.3512 H   0  0  0  0  0  0  0  0  0  0  0  0
  -34.8793   56.8156   62.8138 H   0  0  0  0  0  0  0  0  0  0  0  0
  -33.1195   58.4233   63.1557 H   0  0  0  0  0  0  0  0  0  0  0  0
  -34.2702   60.7545   66.7626 H   0  0  0  0  0  0  0  0  0  0  0  0
  -35.5096   59.5472   66.5189 H   0  0  0  0  0  0  0  0  0  0  0  0
  -35.9256   61.1009   67.2015 H   0  0  0  0  0  0  0  0  0  0  0  0
  -37.0663   60.5499   63.6749 H   0  0  0  0  0  0  0  0  0  0  0  0
  -37.5307   60.2382   65.2906 H   0  0  0  0  0  0  0  0  0  0  0  0
  -38.5549   64.3167   63.6305 H   0  0  0  0  0  0  0  0  0  0  0  0
  -38.8178   66.6684   63.1782 H   0  0  0  0  0  0  0  0  0  0  0  0
  -37.2874   68.2673   64.1186 H   0  0  0  0  0  0  0  0  0  0  0  0
  -35.4641   67.5289   65.5137 H   0  0  0  0  0  0  0  0  0  0  0  0
  -31.5924   60.6446   59.7793 H   0  0  0  0  0  0  0  0  0  0  0  0
  -33.9326   59.4342   58.3845 H   0  0  0  0  0  0  0  0  0  0  0  0
  -32.9715   60.7758   57.8104 H   0  0  0  0  0  0  0  0  0  0  0  0
  -33.9252   60.9435   59.2649 H   0  0  0  0  0  0  0  0  0  0  0  0
  -31.8937   57.9851   58.4225 H   0  0  0  0  0  0  0  0  0  0  0  0
  -30.5068   58.4988   59.4000 H   0  0  0  0  0  0  0  0  0  0  0  0
  -28.9420   60.4515   55.8618 H   0  0  0  0  0  0  0  0  0  0  0  0
  -26.9313   58.2597   56.1037 H   0  0  0  0  0  0  0  0  0  0  0  0
  -27.0173   59.6023   57.2662 H   0  0  0  0  0  0  0  0  0  0  0  0
  -25.3350   60.0271   55.6190 H   0  0  0  0  0  0  0  0  0  0  0  0
  -26.7193   61.1569   55.4816 H   0  0  0  0  0  0  0  0  0  0  0  0
  -26.2559   58.8346   53.7033 H   0  0  0  0  0  0  0  0  0  0  0  0
  -25.8189   60.5280   53.3599 H   0  0  0  0  0  0  0  0  0  0  0  0
  -28.2217   61.0626   53.6932 H   0  0  0  0  0  0  0  0  0  0  0  0
  -27.7695   60.1461   52.2334 H   0  0  0  0  0  0  0  0  0  0  0  0
  1 33  1  0  0  0  0
  1 34  1  0  0  0  0
  1 61  1  0  0  0  0
  2  4  1  0  0  0  0
  2 62  1  0  0  0  0
  2 63  1  0  0  0  0
  2 64  1  0  0  0  0
  3 33  2  0  0  0  0
  4  7  1  0  0  0  0
  4 65  1  0  0  0  0
  4 66  1  0  0  0  0
  5 38  1  0  0  0  0
  5 39  1  0  0  0  0
  5 67  1  0  0  0  0
  6 39  2  0  0  0  0
  7 10  1  0  0  0  0
  7 68  1  0  0  0  0
  7 69  1  0  0  0  0
  8 40  1  0  0  0  0
  8 43  2  0  0  0  0
  9 42  1  0  0  0  0
  9 43  1  0  0  0  0
 10 13  1  0  0  0  0
 10 70  1  0  0  0  0
 10 71  1  0  0  0  0
 11 54  1  0  0  0  0
 11 55  1  0  0  0  0
 11 72  1  0  0  0  0
 12 49  1  0  0  0  0
 12 73  1  0  0  0  0
 13 16  1  0  0  0  0
 13 74  1  0  0  0  0
 13 75  1  0  0  0  0
 14 59  1  0  0  0  0
 14 60  1  0  0  0  0
 14 76  1  0  0  0  0
 15 50  2  0  0  0  0
 16 18  1  0  0  0  0
 16 77  1  0  0  0  0
 16 78  1  0  0  0  0
 17 50  1  0  0  0  0
 17 51  1  0  0  0  0
 18 20  1  0  0  0  0
 18 79  1  0  0  0  0
 18 80  1  0  0  0  0
 19 54  2  0  0  0  0
 20 22  1  0  0  0  0
 20 81  1  0  0  0  0
 20 82  1  0  0  0  0
 21 60  2  0  0  0  0
 22 23  1  0  0  0  0
 22 83  1  0  0  0  0
 22 84  1  0  0  0  0
 23 24  1  0  0  0  0
 23 85  1  0  0  0  0
 23 86  1  0  0  0  0
 24 25  1  0  0  0  0
 24 87  1  0  0  0  0
 24 88  1  0  0  0  0
 25 26  1  0  0  0  0
 25 89  1  0  0  0  0
 25 90  1  0  0  0  0
 26 27  1  0  0  0  0
 26 91  1  0  0  0  0
 26 92  1  0  0  0  0
 27 28  1  0  0  0  0
 27 93  1  0  0  0  0
 27 94  1  0  0  0  0
 28 29  1  0  0  0  0
 28 95  1  0  0  0  0
 28 96  1  0  0  0  0
 29 30  1  0  0  0  0
 29 97  1  0  0  0  0
 29 98  1  0  0  0  0
 30 31  1  0  0  0  0
 30 99  1  0  0  0  0
 30100  1  0  0  0  0
 31 32  2  0  0  0  0
 31101  1  0  0  0  0
 32 33  1  0  0  0  0
 32102  1  0  0  0  0
 34 35  1  0  0  0  0
 34103  1  0  0  0  0
 34104  1  0  0  0  0
 35 36  1  0  0  0  0
 35105  1  0  0  0  0
 35106  1  0  0  0  0
 36 37  1  0  0  0  0
 36107  1  0  0  0  0
 36108  1  0  0  0  0
 37 38  1  0  0  0  0
 37109  1  0  0  0  0
 37110  1  0  0  0  0
 38 50  1  0  0  0  0
 38111  1  1  0  0  0
 40 39  1  6  0  0  0
 40 41  1  0  0  0  0
 40 42  1  0  0  0  0
 41112  1  0  0  0  0
 41113  1  0  0  0  0
 41114  1  0  0  0  0
 42115  1  0  0  0  0
 42116  1  0  0  0  0
 43 44  1  0  0  0  0
 44 45  2  0  0  0  0
 44 49  1  0  0  0  0
 45 46  1  0  0  0  0
 45117  1  0  0  0  0
 46 47  2  0  0  0  0
 46118  1  0  0  0  0
 47 48  1  0  0  0  0
 47119  1  0  0  0  0
 48 49  2  0  0  0  0
 48120  1  0  0  0  0
 51 52  1  0  0  0  0
 51 53  1  0  0  0  0
 51121  1  1  0  0  0
 52122  1  0  0  0  0
 52123  1  0  0  0  0
 52124  1  0  0  0  0
 53 54  1  0  0  0  0
 53125  1  0  0  0  0
 53126  1  0  0  0  0
 55 56  1  0  0  0  0
 55 60  1  0  0  0  0
 55127  1  6  0  0  0
 56 57  1  0  0  0  0
 56128  1  0  0  0  0
 56129  1  0  0  0  0
 57 58  1  0  0  0  0
 57130  1  0  0  0  0
 57131  1  0  0  0  0
 58 59  1  0  0  0  0
 58132  1  0  0  0  0
 58133  1  0  0  0  0
 59134  1  0  0  0  0
 59135  1  0  0  0  0
M  END
$$$$