/media/chris/experiments/cd1a-new-docking/inputs/ligands/7ryo_ligand.pdb
 OpenBabel07032304133D

135137  0  0  1  0  0  0  0  0999 V2000
  -36.2311   60.7237   61.5795 N   0  0  0  0  0  0  0  0  0  0  0  0
  -39.1131   61.8812   56.8055 C   0  0  0  0  0  0  0  0  0  0  0  0
  -34.7328   61.8482   62.8383 O   0  0  0  0  0  0  0  0  0  0  0  0
  -40.4207   62.5973   56.5916 C   0  0  0  0  0  0  0  0  0  0  0  0
  -35.3848   55.2330   62.7177 N   0  0  0  0  0  0  0  0  0  0  0  0
  -35.5611   54.3952   64.7963 O   0  0  0  0  0  0  0  0  0  0  0  0
  -41.6110   61.6590   56.5100 C   0  0  0  0  0  0  0  0  0  0  0  0
  -35.3076   51.8395   63.4168 N   0  0  0  0  0  0  0  0  0  0  0  0
  -37.3672   51.1474   64.0188 O   0  0  0  0  0  0  0  0  0  0  0  0
  -41.8415   60.8250   57.7599 C   0  0  0  0  0  0  0  0  0  0  0  0
  -39.5163   59.9882   66.5921 N   0  0  0  0  0  0  0  0  0  0  0  0
  -33.5575   49.7167   63.1087 O   0  0  0  0  0  0  0  0  0  0  0  0
  -42.1113   61.6601   59.0041 C   0  0  0  0  0  0  0  0  0  0  0  0
  -42.2273   60.8761   68.8182 N   0  0  0  0  0  0  0  0  0  0  0  0
  -36.1056   56.6655   65.2470 O   0  0  0  0  0  0  0  0  0  0  0  0
  -43.3489   62.5381   58.9011 C   0  0  0  0  0  0  0  0  0  0  0  0
  -36.2688   58.3271   63.7327 O   0  0  0  0  0  0  0  0  0  0  0  0
  -43.6152   63.3869   60.1321 C   0  0  0  0  0  0  0  0  0  0  0  0
  -37.4665   60.1389   67.5072 O   0  0  0  0  0  0  0  0  0  0  0  0
  -43.8095   62.5863   61.4093 C   0  0  0  0  0  0  0  0  0  0  0  0
  -42.1413   59.7466   66.8823 O   0  0  0  0  0  0  0  0  0  0  0  0
  -44.0906   63.4530   62.6209 C   0  0  0  0  0  0  0  0  0  0  0  0
  -42.9769   64.4427   62.9043 C   0  0  0  0  0  0  0  0  0  0  0  0
  -41.6256   63.8067   63.1615 C   0  0  0  0  0  0  0  0  0  0  0  0
  -40.5378   64.8203   63.4581 C   0  0  0  0  0  0  0  0  0  0  0  0
  -39.1745   64.1941   63.7008 C   0  0  0  0  0  0  0  0  0  0  0  0
  -38.0908   65.2085   64.0142 C   0  0  0  0  0  0  0  0  0  0  0  0
  -36.7150   64.6054   64.2439 C   0  0  0  0  0  0  0  0  0  0  0  0
  -36.1755   63.8471   63.0435 C   0  0  0  0  0  0  0  0  0  0  0  0
  -36.0087   64.7070   61.7966 C   0  0  0  0  0  0  0  0  0  0  0  0
  -35.4914   63.9107   60.6395 C   0  0  0  0  0  0  0  0  0  0  0  0
  -35.1898   62.6196   60.6121 C   0  0  0  0  0  0  0  0  0  0  0  0
  -35.3353   61.6998   61.7624 C   0  0  0  0  0  0  0  0  0  0  0  0
  -36.5610   59.7701   62.6268 C   0  0  0  0  0  0  0  0  0  0  0  0
  -36.9560   58.4330   62.0390 C   0  0  0  0  0  0  0  0  0  0  0  0
  -35.8780   57.7610   61.2090 C   0  0  0  0  0  0  0  0  0  0  0  0
  -34.6110   57.4590   62.0020 C   0  0  0  0  0  0  0  0  0  0  0  0
  -34.8704   56.5130   63.1754 C   0  0  1  0  0  0  0  0  0  0  0  0
  -35.6907   54.2677   63.5879 C   0  0  0  0  0  0  0  0  0  0  0  0
  -36.2067   52.9355   63.0194 C   0  0  1  0  0  0  0  0  0  0  0  0
  -36.2361   53.0270   61.4967 C   0  0  0  0  0  0  0  0  0  0  0  0
  -37.5703   52.5176   63.5893 C   0  0  0  0  0  0  0  0  0  0  0  0
  -36.0273   50.9366   63.9425 C   0  0  0  0  0  0  0  0  0  0  0  0
  -35.5541   49.6595   64.4817 C   0  0  0  0  0  0  0  0  0  0  0  0
  -36.2301   49.0528   65.5411 C   0  0  0  0  0  0  0  0  0  0  0  0
  -35.6639   47.9849   66.2158 C   0  0  0  0  0  0  0  0  0  0  0  0
  -34.4246   47.5064   65.8499 C   0  0  0  0  0  0  0  0  0  0  0  0
  -33.7319   48.0928   64.8064 C   0  0  0  0  0  0  0  0  0  0  0  0
  -34.2835   49.1685   64.1175 C   0  0  0  0  0  0  0  0  0  0  0  0
  -35.8061   57.1511   64.1912 C   0  0  0  0  0  0  0  0  0  0  0  0
  -36.6237   59.3595   64.7114 C   0  0  2  0  0  0  0  0  0  0  0  0
  -35.3856   59.7000   65.5018 C   0  0  0  0  0  0  0  0  0  0  0  0
  -37.7091   58.7466   65.5749 C   0  0  0  0  0  0  0  0  0  0  0  0
  -38.2150   59.6895   66.6439 C   0  0  0  0  0  0  0  0  0  0  0  0
  -40.1397   60.8722   67.5614 C   0  0  1  0  0  0  0  0  0  0  0  0
  -40.0806   62.3218   67.0667 C   0  0  0  0  0  0  0  0  0  0  0  0
  -40.2840   63.3532   68.1713 C   0  0  0  0  0  0  0  0  0  0  0  0
  -41.6250   63.2974   68.8758 C   0  0  0  0  0  0  0  0  0  0  0  0
  -41.8658   62.0186   69.6504 C   0  0  0  0  0  0  0  0  0  0  0  0
  -41.5911   60.4496   67.7249 C   0  0  0  0  0  0  0  0  0  0  0  0
  -36.6819   60.6483   60.7075 H   0  0  0  0  0  0  0  0  0  0  0  0
  -38.3185   62.5962   56.8537 H   0  0  0  0  0  0  0  0  0  0  0  0
  -38.9381   61.2077   55.9927 H   0  0  0  0  0  0  0  0  0  0  0  0
  -39.1537   61.3308   57.7222 H   0  0  0  0  0  0  0  0  0  0  0  0
  -40.3600   63.1498   55.6772 H   0  0  0  0  0  0  0  0  0  0  0  0
  -40.5759   63.2345   57.4371 H   0  0  0  0  0  0  0  0  0  0  0  0
  -35.5092   55.0758   61.7538 H   0  0  0  0  0  0  0  0  0  0  0  0
  -41.4558   60.9927   55.6873 H   0  0  0  0  0  0  0  0  0  0  0  0
  -42.4775   62.2754   56.3907 H   0  0  0  0  0  0  0  0  0  0  0  0
  -40.9707   60.2282   57.9346 H   0  0  0  0  0  0  0  0  0  0  0  0
  -42.7127   60.2288   57.5851 H   0  0  0  0  0  0  0  0  0  0  0  0
  -40.0683   59.5980   65.8764 H   0  0  0  0  0  0  0  0  0  0  0  0
  -33.9006   50.4422   62.6252 H   0  0  0  0  0  0  0  0  0  0  0  0
  -41.2643   62.2908   59.1766 H   0  0  0  0  0  0  0  0  0  0  0  0
  -42.2834   60.9741   59.8070 H   0  0  0  0  0  0  0  0  0  0  0  0
  -43.0239   60.3663   69.0916 H   0  0  0  0  0  0  0  0  0  0  0  0
  -44.1966   61.9053   58.7402 H   0  0  0  0  0  0  0  0  0  0  0  0
  -43.1777   63.2164   58.0914 H   0  0  0  0  0  0  0  0  0  0  0  0
  -44.5006   63.9620   59.9582 H   0  0  0  0  0  0  0  0  0  0  0  0
  -42.7481   63.9963   60.2794 H   0  0  0  0  0  0  0  0  0  0  0  0
  -42.9203   62.0208   61.5948 H   0  0  0  0  0  0  0  0  0  0  0  0
  -44.6629   61.9575   61.2635 H   0  0  0  0  0  0  0  0  0  0  0  0
  -44.2106   62.8192   63.4746 H   0  0  0  0  0  0  0  0  0  0  0  0
  -44.9780   64.0150   62.4171 H   0  0  0  0  0  0  0  0  0  0  0  0
  -43.2480   65.0135   63.7678 H   0  0  0  0  0  0  0  0  0  0  0  0
  -42.8700   65.0427   62.0248 H   0  0  0  0  0  0  0  0  0  0  0  0
  -41.3422   63.2469   62.2947 H   0  0  0  0  0  0  0  0  0  0  0  0
  -41.7254   63.1838   64.0257 H   0  0  0  0  0  0  0  0  0  0  0  0
  -40.8176   65.3713   64.3316 H   0  0  0  0  0  0  0  0  0  0  0  0
  -40.4472   65.4460   62.5948 H   0  0  0  0  0  0  0  0  0  0  0  0
  -38.8888   63.6533   62.8228 H   0  0  0  0  0  0  0  0  0  0  0  0
  -39.2676   63.5580   64.5562 H   0  0  0  0  0  0  0  0  0  0  0  0
  -38.3752   65.7400   64.8982 H   0  0  0  0  0  0  0  0  0  0  0  0
  -38.0075   65.8418   63.1558 H   0  0  0  0  0  0  0  0  0  0  0  0
  -36.7756   63.9299   65.0715 H   0  0  0  0  0  0  0  0  0  0  0  0
  -36.0435   65.4174   64.4299 H   0  0  0  0  0  0  0  0  0  0  0  0
  -36.8525   63.0504   62.8158 H   0  0  0  0  0  0  0  0  0  0  0  0
  -35.2015   63.4935   63.3105 H   0  0  0  0  0  0  0  0  0  0  0  0
  -35.3191   65.4968   62.0099 H   0  0  0  0  0  0  0  0  0  0  0  0
  -36.9686   65.0973   61.5300 H   0  0  0  0  0  0  0  0  0  0  0  0
  -35.3528   64.4284   59.7576 H   0  0  0  0  0  0  0  0  0  0  0  0
  -34.8287   62.2293   59.7276 H   0  0  0  0  0  0  0  0  0  0  0  0
  -37.3764   60.1530   63.2042 H   0  0  0  0  0  0  0  0  0  0  0  0
  -35.6979   59.6294   63.2434 H   0  0  0  0  0  0  0  0  0  0  0  0
  -37.8119   58.5833   61.4147 H   0  0  0  0  0  0  0  0  0  0  0  0
  -37.1476   57.7838   62.8677 H   0  0  0  0  0  0  0  0  0  0  0  0
  -35.6238   58.4067   60.3945 H   0  0  0  0  0  0  0  0  0  0  0  0
  -36.2729   56.8255   60.8717 H   0  0  0  0  0  0  0  0  0  0  0  0
  -34.2161   58.3779   62.3821 H   0  0  0  0  0  0  0  0  0  0  0  0
  -33.9192   56.9787   61.3420 H   0  0  0  0  0  0  0  0  0  0  0  0
  -33.9347   56.3288   63.6606 H   0  0  0  0  0  0  0  0  0  0  0  0
  -35.2713   53.3197   61.1383 H   0  0  0  0  0  0  0  0  0  0  0  0
  -36.9632   53.7525   61.1969 H   0  0  0  0  0  0  0  0  0  0  0  0
  -36.4943   52.0729   61.0870 H   0  0  0  0  0  0  0  0  0  0  0  0
  -37.8431   53.1389   64.4167 H   0  0  0  0  0  0  0  0  0  0  0  0
  -38.3612   52.6118   62.8748 H   0  0  0  0  0  0  0  0  0  0  0  0
  -37.1589   49.4028   65.8236 H   0  0  0  0  0  0  0  0  0  0  0  0
  -36.1731   47.5444   66.9978 H   0  0  0  0  0  0  0  0  0  0  0  0
  -34.0119   46.7075   66.3563 H   0  0  0  0  0  0  0  0  0  0  0  0
  -32.8032   47.7316   64.5379 H   0  0  0  0  0  0  0  0  0  0  0  0
  -36.9812   60.2677   64.2728 H   0  0  0  0  0  0  0  0  0  0  0  0
  -34.9979   58.8127   65.9571 H   0  0  0  0  0  0  0  0  0  0  0  0
  -35.6321   60.4122   66.2615 H   0  0  0  0  0  0  0  0  0  0  0  0
  -34.6483   60.1168   64.8479 H   0  0  0  0  0  0  0  0  0  0  0  0
  -37.3145   57.8727   66.0497 H   0  0  0  0  0  0  0  0  0  0  0  0
  -38.5348   58.5144   64.9353 H   0  0  0  0  0  0  0  0  0  0  0  0
  -39.6237   60.8095   68.4967 H   0  0  0  0  0  0  0  0  0  0  0  0
  -40.8450   62.4593   66.3307 H   0  0  0  0  0  0  0  0  0  0  0  0
  -39.0996   62.4777   66.6691 H   0  0  0  0  0  0  0  0  0  0  0  0
  -40.1794   64.3258   67.7378 H   0  0  0  0  0  0  0  0  0  0  0  0
  -39.5500   63.1332   68.9181 H   0  0  0  0  0  0  0  0  0  0  0  0
  -42.3953   63.3940   68.1395 H   0  0  0  0  0  0  0  0  0  0  0  0
  -41.6314   64.0950   69.5890 H   0  0  0  0  0  0  0  0  0  0  0  0
  -40.9708   61.7756   70.1841 H   0  0  0  0  0  0  0  0  0  0  0  0
  -42.6969   62.2029   70.2987 H   0  0  0  0  0  0  0  0  0  0  0  0
  1 33  1  0  0  0  0
  1 34  1  0  0  0  0
  1 61  1  0  0  0  0
  2  4  1  0  0  0  0
  2 62  1  0  0  0  0
  2 63  1  0  0  0  0
  2 64  1  0  0  0  0
  3 33  2  0  0  0  0
  4  7  1  0  0  0  0
  4 65  1  0  0  0  0
  4 66  1  0  0  0  0
  5 38  1  0  0  0  0
  5 39  1  0  0  0  0
  5 67  1  0  0  0  0
  6 39  2  0  0  0  0
  7 10  1  0  0  0  0
  7 68  1  0  0  0  0
  7 69  1  0  0  0  0
  8 40  1  0  0  0  0
  8 43  2  0  0  0  0
  9 42  1  0  0  0  0
  9 43  1  0  0  0  0
 10 13  1  0  0  0  0
 10 70  1  0  0  0  0
 10 71  1  0  0  0  0
 11 54  1  0  0  0  0
 11 55  1  0  0  0  0
 11 72  1  0  0  0  0
 12 49  1  0  0  0  0
 12 73  1  0  0  0  0
 13 16  1  0  0  0  0
 13 74  1  0  0  0  0
 13 75  1  0  0  0  0
 14 59  1  0  0  0  0
 14 60  1  0  0  0  0
 14 76  1  0  0  0  0
 15 50  2  0  0  0  0
 16 18  1  0  0  0  0
 16 77  1  0  0  0  0
 16 78  1  0  0  0  0
 17 50  1  0  0  0  0
 17 51  1  0  0  0  0
 18 20  1  0  0  0  0
 18 79  1  0  0  0  0
 18 80  1  0  0  0  0
 19 54  2  0  0  0  0
 20 22  1  0  0  0  0
 20 81  1  0  0  0  0
 20 82  1  0  0  0  0
 21 60  2  0  0  0  0
 22 23  1  0  0  0  0
 22 83  1  0  0  0  0
 22 84  1  0  0  0  0
 23 24  1  0  0  0  0
 23 85  1  0  0  0  0
 23 86  1  0  0  0  0
 24 25  1  0  0  0  0
 24 87  1  0  0  0  0
 24 88  1  0  0  0  0
 25 26  1  0  0  0  0
 25 89  1  0  0  0  0
 25 90  1  0  0  0  0
 26 27  1  0  0  0  0
 26 91  1  0  0  0  0
 26 92  1  0  0  0  0
 27 28  1  0  0  0  0
 27 93  1  0  0  0  0
 27 94  1  0  0  0  0
 28 29  1  0  0  0  0
 28 95  1  0  0  0  0
 28 96  1  0  0  0  0
 29 30  1  0  0  0  0
 29 97  1  0  0  0  0
 29 98  1  0  0  0  0
 30 31  1  0  0  0  0
 30 99  1  0  0  0  0
 30100  1  0  0  0  0
 31 32  2  0  0  0  0
 31101  1  0  0  0  0
 32 33  1  0  0  0  0
 32102  1  0  0  0  0
 34 35  1  0  0  0  0
 34103  1  0  0  0  0
 34104  1  0  0  0  0
 35 36  1  0  0  0  0
 35105  1  0  0  0  0
 35106  1  0  0  0  0
 36 37  1  0  0  0  0
 36107  1  0  0  0  0
 36108  1  0  0  0  0
 37 38  1  0  0  0  0
 37109  1  0  0  0  0
 37110  1  0  0  0  0
 38 50  1  0  0  0  0
 38111  1  1  0  0  0
 40 39  1  1  0  0  0
 40 41  1  0  0  0  0
 40 42  1  0  0  0  0
 41112  1  0  0  0  0
 41113  1  0  0  0  0
 41114  1  0  0  0  0
 42115  1  0  0  0  0
 42116  1  0  0  0  0
 43 44  1  0  0  0  0
 44 45  2  0  0  0  0
 44 49  1  0  0  0  0
 45 46  1  0  0  0  0
 45117  1  0  0  0  0
 46 47  2  0  0  0  0
 46118  1  0  0  0  0
 47 48  1  0  0  0  0
 47119  1  0  0  0  0
 48 49  2  0  0  0  0
 48120  1  0  0  0  0
 51 52  1  0  0  0  0
 51 53  1  0  0  0  0
 51121  1  6  0  0  0
 52122  1  0  0  0  0
 52123  1  0  0  0  0
 52124  1  0  0  0  0
 53 54  1  0  0  0  0
 53125  1  0  0  0  0
 53126  1  0  0  0  0
 55 56  1  0  0  0  0
 55 60  1  0  0  0  0
 55127  1  1  0  0  0
 56 57  1  0  0  0  0
 56128  1  0  0  0  0
 56129  1  0  0  0  0
 57 58  1  0  0  0  0
 57130  1  0  0  0  0
 57131  1  0  0  0  0
 58 59  1  0  0  0  0
 58132  1  0  0  0  0
 58133  1  0  0  0  0
 59134  1  0  0  0  0
 59135  1  0  0  0  0
M  END
$$$$