/media/chris/experiments/cd1a-new-docking/inputs/ligands/1onq_ligand.pdb
 OpenBabel06222310383D

137137  0  0  1  0  0  0  0  0999 V2000
  -40.4920   60.2280   63.6270 N   0  0  0  0  0  0  0  0  0  0  0  0
  -38.5950   61.7730   64.2860 C   0  0  0  0  0  0  0  0  0  0  0  0
  -37.5441   62.0867   65.2349 O   0  0  0  0  0  0  0  0  0  0  0  0
  -39.4590   60.5300   64.5980 C   0  0  1  0  0  0  0  0  0  0  0  0
  -40.7577   59.2290   66.0180 O   0  0  0  0  0  0  0  0  0  0  0  0
  -40.2280   60.5370   65.9080 C   0  0  2  0  0  0  0  0  0  0  0  0
  -40.2107   61.8855   62.1035 O   0  0  0  0  0  0  0  0  0  0  0  0
  -41.3266   61.6007   65.8452 C   0  0  0  0  0  0  0  0  0  0  0  0
  -42.6327   61.3127   65.9778 C   0  0  0  0  0  0  0  0  0  0  0  0
  -35.0677   62.0871   63.8049 O   0  0  0  0  0  0  0  0  0  0  0  0
  -43.6696   62.4318   65.9021 C   0  0  0  0  0  0  0  0  0  0  0  0
  -34.0199   64.5267   62.4933 O   0  0  0  0  0  0  0  0  0  0  0  0
  -44.5182   62.5800   67.1733 C   0  0  0  0  0  0  0  0  0  0  0  0
  -31.8452   65.6919   63.2869 O   0  0  0  0  0  0  0  0  0  0  0  0
  -43.7392   62.9094   68.4602 C   0  0  0  0  0  0  0  0  0  0  0  0
  -36.4318   65.8017   62.4860 O   0  0  0  0  0  0  0  0  0  0  0  0
  -44.6978   63.0157   69.6706 C   0  0  0  0  0  0  0  0  0  0  0  0
  -37.4137   64.5009   65.0354 O   0  0  0  0  0  0  0  0  0  0  0  0
  -45.8047   64.0931   69.5454 C   0  0  0  0  0  0  0  0  0  0  0  0
  -36.4467   68.0573   64.5825 O   0  0  0  0  0  0  0  0  0  0  0  0
  -46.7646   63.8793   68.3514 C   0  0  0  0  0  0  0  0  0  0  0  0
  -47.8511   64.9696   68.2295 C   0  0  0  0  0  0  0  0  0  0  0  0
  -48.7526   65.0842   69.4646 C   0  0  0  0  0  0  0  0  0  0  0  0
  -33.6225   67.0179   62.3011 O   0  5  0  0  0  0  0  0  0  0  0  0
  -49.8574   66.1362   69.3941 C   0  0  0  0  0  0  0  0  0  0  0  0
  -32.2187   65.6260   60.8989 O   0  0  0  0  0  0  0  0  0  0  0  0
  -49.3412   67.5723   69.1771 C   0  0  0  0  0  0  0  0  0  0  0  0
  -48.3841   68.0946   70.2593 C   0  0  0  0  0  0  0  0  0  0  0  0
  -49.0540   68.0863   71.6364 C   0  0  0  0  0  0  0  0  0  0  0  0
  -48.2182   68.5965   72.7969 C   0  0  0  0  0  0  0  0  0  0  0  0
  -40.7863   60.8910   62.5003 C   0  0  0  0  0  0  0  0  0  0  0  0
  -41.9161   60.3159   61.6986 C   0  0  0  0  0  0  0  0  0  0  0  0
  -42.9841   61.4063   61.6109 C   0  0  0  0  0  0  0  0  0  0  0  0
  -44.1866   60.8961   60.8206 C   0  0  0  0  0  0  0  0  0  0  0  0
  -45.3218   61.8736   60.6353 C   0  0  0  0  0  0  0  0  0  0  0  0
  -45.8142   62.2760   62.0215 C   0  0  0  0  0  0  0  0  0  0  0  0
  -46.3021   61.0788   62.8482 C   0  0  0  0  0  0  0  0  0  0  0  0
  -46.8234   61.4482   64.2491 C   0  0  0  0  0  0  0  0  0  0  0  0
  -48.0322   62.4087   64.2058 C   0  0  0  0  0  0  0  0  0  0  0  0
  -48.4973   62.7556   65.6230 C   0  0  0  0  0  0  0  0  0  0  0  0
  -47.4568   63.4532   66.4906 C   0  0  0  0  0  0  0  0  0  0  0  0
  -47.0114   64.7833   65.9010 C   0  0  0  0  0  0  0  0  0  0  0  0
  -45.9527   65.5495   66.6973 C   0  0  0  0  0  0  0  0  0  0  0  0
  -45.6536   66.8496   65.9630 C   0  0  0  0  0  0  0  0  0  0  0  0
  -45.1341   66.7775   64.5347 C   0  0  0  0  0  0  0  0  0  0  0  0
  -44.8762   68.1841   63.9718 C   0  0  0  0  0  0  0  0  0  0  0  0
  -44.3630   68.2068   62.5202 C   0  0  0  0  0  0  0  0  0  0  0  0
  -44.0998   69.6161   61.9946 C   0  0  0  0  0  0  0  0  0  0  0  0
  -36.6675   63.2597   65.0462 C   0  0  2  0  0  0  0  0  0  0  0  0
  -35.8119   63.2657   63.7712 C   0  0  1  0  0  0  0  0  0  0  0  0
  -34.8316   64.4561   63.6875 C   0  0  2  0  0  0  0  0  0  0  0  0
  -35.6781   65.6990   63.6916 C   0  0  2  0  0  0  0  0  0  0  0  0
  -36.5935   65.6931   64.9025 C   0  0  1  0  0  0  0  0  0  0  0  0
  -37.3535   67.0038   64.7114 C   0  0  0  0  0  0  0  0  0  0  0  0
  -32.8935   65.7229   62.2244 S   0  0  0  0  0  0  0  0  0  0  0  0
  -41.0464   59.4375   63.8192 H   0  0  0  0  0  0  0  0  0  0  0  0
  -38.1357   61.6183   63.3320 H   0  0  0  0  0  0  0  0  0  0  0  0
  -39.2690   62.6030   64.3261 H   0  0  0  0  0  0  0  0  0  0  0  0
  -38.6677   59.8099   64.6092 H   0  0  0  0  0  0  0  0  0  0  0  0
  -40.0308   58.5878   66.0547 H   0  0  0  0  0  0  0  0  0  0  0  0
  -39.6247   60.7776   66.7583 H   0  0  0  0  0  0  0  0  0  0  0  0
  -41.0520   62.5840   65.6941 H   0  0  0  0  0  0  0  0  0  0  0  0
  -42.9343   60.3376   66.1304 H   0  0  0  0  0  0  0  0  0  0  0  0
  -35.6681   61.3270   63.8576 H   0  0  0  0  0  0  0  0  0  0  0  0
  -44.3250   62.2290   65.0811 H   0  0  0  0  0  0  0  0  0  0  0  0
  -43.1300   63.3477   65.7801 H   0  0  0  0  0  0  0  0  0  0  0  0
  -45.0387   61.6585   67.3307 H   0  0  0  0  0  0  0  0  0  0  0  0
  -45.1618   63.4169   66.9991 H   0  0  0  0  0  0  0  0  0  0  0  0
  -32.2663   65.7541   64.1585 H   0  0  0  0  0  0  0  0  0  0  0  0
  -43.2298   63.8417   68.3330 H   0  0  0  0  0  0  0  0  0  0  0  0
  -43.0369   62.1239   68.6466 H   0  0  0  0  0  0  0  0  0  0  0  0
  -35.8283   65.8037   61.7266 H   0  0  0  0  0  0  0  0  0  0  0  0
  -44.1124   63.2422   70.5371 H   0  0  0  0  0  0  0  0  0  0  0  0
  -45.2051   62.0755   69.7300 H   0  0  0  0  0  0  0  0  0  0  0  0
  -45.3334   65.0468   69.4306 H   0  0  0  0  0  0  0  0  0  0  0  0
  -46.3986   64.0287   70.4331 H   0  0  0  0  0  0  0  0  0  0  0  0
  -36.9318   68.8885   64.4613 H   0  0  0  0  0  0  0  0  0  0  0  0
  -47.2477   62.9321   68.4710 H   0  0  0  0  0  0  0  0  0  0  0  0
  -46.1731   63.9245   67.4609 H   0  0  0  0  0  0  0  0  0  0  0  0
  -48.4650   64.7413   67.3835 H   0  0  0  0  0  0  0  0  0  0  0  0
  -47.3434   65.9058   68.1257 H   0  0  0  0  0  0  0  0  0  0  0  0
  -48.1305   65.3190   70.3029 H   0  0  0  0  0  0  0  0  0  0  0  0
  -49.2559   64.1431   69.5416 H   0  0  0  0  0  0  0  0  0  0  0  0
  -50.4057   66.1107   70.3126 H   0  0  0  0  0  0  0  0  0  0  0  0
  -50.4633   65.8931   68.5463 H   0  0  0  0  0  0  0  0  0  0  0  0
  -31.7406   64.7841   60.8403 H   0  0  0  0  0  0  0  0  0  0  0  0
  -50.1875   68.2261   69.1404 H   0  0  0  0  0  0  0  0  0  0  0  0
  -48.7775   67.5507   68.2679 H   0  0  0  0  0  0  0  0  0  0  0  0
  -48.0952   69.0959   70.0170 H   0  0  0  0  0  0  0  0  0  0  0  0
  -47.5273   67.4546   70.2937 H   0  0  0  0  0  0  0  0  0  0  0  0
  -49.3344   67.0774   71.8559 H   0  0  0  0  0  0  0  0  0  0  0  0
  -49.8755   68.7673   71.5568 H   0  0  0  0  0  0  0  0  0  0  0  0
  -47.3715   67.9570   72.9348 H   0  0  0  0  0  0  0  0  0  0  0  0
  -48.8105   68.6013   73.6880 H   0  0  0  0  0  0  0  0  0  0  0  0
  -47.8837   69.5907   72.5856 H   0  0  0  0  0  0  0  0  0  0  0  0
  -42.3116   59.4493   62.1859 H   0  0  0  0  0  0  0  0  0  0  0  0
  -41.5873   60.0167   60.7254 H   0  0  0  0  0  0  0  0  0  0  0  0
  -42.5751   62.2643   61.1196 H   0  0  0  0  0  0  0  0  0  0  0  0
  -43.2991   61.6700   62.5989 H   0  0  0  0  0  0  0  0  0  0  0  0
  -44.5733   60.0386   61.3306 H   0  0  0  0  0  0  0  0  0  0  0  0
  -43.8188   60.6925   59.8366 H   0  0  0  0  0  0  0  0  0  0  0  0
  -46.1154   61.4114   60.0862 H   0  0  0  0  0  0  0  0  0  0  0  0
  -44.9927   62.7328   60.0892 H   0  0  0  0  0  0  0  0  0  0  0  0
  -46.6233   62.9673   61.9099 H   0  0  0  0  0  0  0  0  0  0  0  0
  -44.9886   62.7135   62.5430 H   0  0  0  0  0  0  0  0  0  0  0  0
  -45.4864   60.3960   62.9633 H   0  0  0  0  0  0  0  0  0  0  0  0
  -47.1272   60.6539   62.3158 H   0  0  0  0  0  0  0  0  0  0  0  0
  -46.0325   61.9190   64.7946 H   0  0  0  0  0  0  0  0  0  0  0  0
  -47.1482   60.5439   64.7199 H   0  0  0  0  0  0  0  0  0  0  0  0
  -48.8354   61.9393   63.6773 H   0  0  0  0  0  0  0  0  0  0  0  0
  -47.7385   63.3099   63.7093 H   0  0  0  0  0  0  0  0  0  0  0  0
  -48.7805   61.8464   66.1110 H   0  0  0  0  0  0  0  0  0  0  0  0
  -49.3054   63.4478   65.5110 H   0  0  0  0  0  0  0  0  0  0  0  0
  -46.6030   62.8151   66.5842 H   0  0  0  0  0  0  0  0  0  0  0  0
  -47.9034   63.6504   67.4428 H   0  0  0  0  0  0  0  0  0  0  0  0
  -47.8748   65.4096   65.8171 H   0  0  0  0  0  0  0  0  0  0  0  0
  -46.5512   64.5441   64.9651 H   0  0  0  0  0  0  0  0  0  0  0  0
  -45.0612   64.9628   66.7728 H   0  0  0  0  0  0  0  0  0  0  0  0
  -46.3105   65.7564   67.6843 H   0  0  0  0  0  0  0  0  0  0  0  0
  -44.9209   67.3754   66.5388 H   0  0  0  0  0  0  0  0  0  0  0  0
  -46.6094   67.3214   65.8690 H   0  0  0  0  0  0  0  0  0  0  0  0
  -45.8595   66.2832   63.9229 H   0  0  0  0  0  0  0  0  0  0  0  0
  -44.2117   66.2352   64.5340 H   0  0  0  0  0  0  0  0  0  0  0  0
  -44.1474   68.6636   64.5914 H   0  0  0  0  0  0  0  0  0  0  0  0
  -45.8199   68.6885   63.9688 H   0  0  0  0  0  0  0  0  0  0  0  0
  -45.0954   67.7420   61.8937 H   0  0  0  0  0  0  0  0  0  0  0  0
  -43.4297   67.6838   62.5058 H   0  0  0  0  0  0  0  0  0  0  0  0
  -45.0135   70.1729   61.9937 H   0  0  0  0  0  0  0  0  0  0  0  0
  -43.7160   69.5590   60.9974 H   0  0  0  0  0  0  0  0  0  0  0  0
  -43.3854   70.1040   62.6243 H   0  0  0  0  0  0  0  0  0  0  0  0
  -36.0127   63.1808   65.8888 H   0  0  0  0  0  0  0  0  0  0  0  0
  -36.4595   63.3487   62.9234 H   0  0  0  0  0  0  0  0  0  0  0  0
  -34.1533   64.3446   64.5075 H   0  0  0  0  0  0  0  0  0  0  0  0
  -35.0370   66.5538   63.7488 H   0  0  0  0  0  0  0  0  0  0  0  0
  -36.0767   65.6460   65.8383 H   0  0  0  0  0  0  0  0  0  0  0  0
  -37.9544   66.9413   63.8283 H   0  0  0  0  0  0  0  0  0  0  0  0
  -37.9810   67.1774   65.5606 H   0  0  0  0  0  0  0  0  0  0  0  0
  1  4  1  0  0  0  0
  1 31  1  0  0  0  0
  1 56  1  0  0  0  0
  2  3  1  0  0  0  0
  2  4  1  0  0  0  0
  2 57  1  0  0  0  0
  2 58  1  0  0  0  0
  3 49  1  0  0  0  0
  4  6  1  0  0  0  0
  4 59  1  1  0  0  0
  5  6  1  0  0  0  0
  5 60  1  0  0  0  0
  6  8  1  0  0  0  0
  6 61  1  1  0  0  0
  7 31  2  0  0  0  0
  8  9  2  0  0  0  0
  8 62  1  0  0  0  0
  9 11  1  0  0  0  0
  9 63  1  0  0  0  0
 10 50  1  0  0  0  0
 10 64  1  0  0  0  0
 11 13  1  0  0  0  0
 11 65  1  0  0  0  0
 11 66  1  0  0  0  0
 12 51  1  0  0  0  0
 12 55  1  0  0  0  0
 13 15  1  0  0  0  0
 13 67  1  0  0  0  0
 13 68  1  0  0  0  0
 14 55  1  0  0  0  0
 14 69  1  0  0  0  0
 15 17  1  0  0  0  0
 15 70  1  0  0  0  0
 15 71  1  0  0  0  0
 16 52  1  0  0  0  0
 16 72  1  0  0  0  0
 17 19  1  0  0  0  0
 17 73  1  0  0  0  0
 17 74  1  0  0  0  0
 18 49  1  0  0  0  0
 18 53  1  0  0  0  0
 19 21  1  0  0  0  0
 19 75  1  0  0  0  0
 19 76  1  0  0  0  0
 20 54  1  0  0  0  0
 20 77  1  0  0  0  0
 21 22  1  0  0  0  0
 21 78  1  0  0  0  0
 21 79  1  0  0  0  0
 22 23  1  0  0  0  0
 22 80  1  0  0  0  0
 22 81  1  0  0  0  0
 23 25  1  0  0  0  0
 23 82  1  0  0  0  0
 23 83  1  0  0  0  0
 24 55  1  0  0  0  0
 25 27  1  0  0  0  0
 25 84  1  0  0  0  0
 25 85  1  0  0  0  0
 26 55  1  0  0  0  0
 26 86  1  0  0  0  0
 27 28  1  0  0  0  0
 27 87  1  0  0  0  0
 27 88  1  0  0  0  0
 28 29  1  0  0  0  0
 28 89  1  0  0  0  0
 28 90  1  0  0  0  0
 29 30  1  0  0  0  0
 29 91  1  0  0  0  0
 29 92  1  0  0  0  0
 30 93  1  0  0  0  0
 30 94  1  0  0  0  0
 30 95  1  0  0  0  0
 31 32  1  0  0  0  0
 32 33  1  0  0  0  0
 32 96  1  0  0  0  0
 32 97  1  0  0  0  0
 33 34  1  0  0  0  0
 33 98  1  0  0  0  0
 33 99  1  0  0  0  0
 34 35  1  0  0  0  0
 34100  1  0  0  0  0
 34101  1  0  0  0  0
 35 36  1  0  0  0  0
 35102  1  0  0  0  0
 35103  1  0  0  0  0
 36 37  1  0  0  0  0
 36104  1  0  0  0  0
 36105  1  0  0  0  0
 37 38  1  0  0  0  0
 37106  1  0  0  0  0
 37107  1  0  0  0  0
 38 39  1  0  0  0  0
 38108  1  0  0  0  0
 38109  1  0  0  0  0
 39 40  1  0  0  0  0
 39110  1  0  0  0  0
 39111  1  0  0  0  0
 40 41  1  0  0  0  0
 40112  1  0  0  0  0
 40113  1  0  0  0  0
 41 42  1  0  0  0  0
 41114  1  0  0  0  0
 41115  1  0  0  0  0
 42 43  1  0  0  0  0
 42116  1  0  0  0  0
 42117  1  0  0  0  0
 43 44  1  0  0  0  0
 43118  1  0  0  0  0
 43119  1  0  0  0  0
 44 45  1  0  0  0  0
 44120  1  0  0  0  0
 44121  1  0  0  0  0
 45 46  1  0  0  0  0
 45122  1  0  0  0  0
 45123  1  0  0  0  0
 46 47  1  0  0  0  0
 46124  1  0  0  0  0
 46125  1  0  0  0  0
 47 48  1  0  0  0  0
 47126  1  0  0  0  0
 47127  1  0  0  0  0
 48128  1  0  0  0  0
 48129  1  0  0  0  0
 48130  1  0  0  0  0
 49 50  1  0  0  0  0
 49131  1  1  0  0  0
 50 51  1  0  0  0  0
 50132  1  6  0  0  0
 51 52  1  0  0  0  0
 51133  1  1  0  0  0
 52 53  1  0  0  0  0
 52134  1  1  0  0  0
 53 54  1  0  0  0  0
 53135  1  1  0  0  0
 54136  1  0  0  0  0
 54137  1  0  0  0  0
M  CHG  1  24  -1
M  END
$$$$