/media/chris/experiments/cd1a-new-docking/inputs/ligands/1onq_ligand.pdb
 OpenBabel06222310383D

137137  0  0  1  0  0  0  0  0999 V2000
  -40.4920   60.2280   63.6270 N   0  0  0  0  0  0  0  0  0  0  0  0
  -38.5950   61.7730   64.2860 C   0  0  0  0  0  0  0  0  0  0  0  0
  -37.5441   62.0867   65.2349 O   0  0  0  0  0  0  0  0  0  0  0  0
  -39.4590   60.5300   64.5980 C   0  0  1  0  0  0  0  0  0  0  0  0
  -40.7577   59.2290   66.0180 O   0  0  0  0  0  0  0  0  0  0  0  0
  -40.2280   60.5370   65.9080 C   0  0  2  0  0  0  0  0  0  0  0  0
  -41.5248   58.9216   62.0861 O   0  0  0  0  0  0  0  0  0  0  0  0
  -41.3266   61.6007   65.8452 C   0  0  0  0  0  0  0  0  0  0  0  0
  -41.3921   62.6366   66.6990 C   0  0  0  0  0  0  0  0  0  0  0  0
  -37.5806   60.0646   67.2565 O   0  0  0  0  0  0  0  0  0  0  0  0
  -42.5217   63.6569   66.5713 C   0  0  0  0  0  0  0  0  0  0  0  0
  -36.0104   57.5670   66.9984 O   0  0  0  0  0  0  0  0  0  0  0  0
  -42.9351   64.2968   67.9046 C   0  0  0  0  0  0  0  0  0  0  0  0
  -38.2735   57.9493   68.2022 O   0  0  0  0  0  0  0  0  0  0  0  0
  -41.8322   65.0836   68.6366 C   0  0  0  0  0  0  0  0  0  0  0  0
  -35.6857   57.8125   64.3008 O   0  0  0  0  0  0  0  0  0  0  0  0
  -42.3635   65.6632   69.9697 C   0  0  0  0  0  0  0  0  0  0  0  0
  -35.6754   60.8382   64.3212 O   0  0  0  0  0  0  0  0  0  0  0  0
  -41.3395   66.4920   70.7858 C   0  0  0  0  0  0  0  0  0  0  0  0
  -32.7832   58.6087   63.6489 O   0  0  0  0  0  0  0  0  0  0  0  0
  -40.0690   65.7080   71.1906 C   0  0  0  0  0  0  0  0  0  0  0  0
  -39.0663   66.5415   72.0176 C   0  0  0  0  0  0  0  0  0  0  0  0
  -39.6371   67.0559   73.3445 C   0  0  0  0  0  0  0  0  0  0  0  0
  -36.2081   58.0655   69.4709 O   0  5  0  0  0  0  0  0  0  0  0  0
  -40.0975   65.9893   74.3358 C   0  0  0  0  0  0  0  0  0  0  0  0
  -37.0865   55.9195   68.7655 O   0  0  0  0  0  0  0  0  0  0  0  0
  -38.9777   65.0328   74.7909 C   0  0  0  0  0  0  0  0  0  0  0  0
  -38.2959   64.2402   73.6653 C   0  0  0  0  0  0  0  0  0  0  0  0
  -37.2148   63.3107   74.2241 C   0  0  0  0  0  0  0  0  0  0  0  0
  -36.0866   63.9736   74.9944 C   0  0  0  0  0  0  0  0  0  0  0  0
  -40.6403   59.1136   62.8978 C   0  0  0  0  0  0  0  0  0  0  0  0
  -39.6041   58.0550   63.1330 C   0  0  0  0  0  0  0  0  0  0  0  0
  -39.9494   56.8954   62.1986 C   0  0  0  0  0  0  0  0  0  0  0  0
  -38.9479   55.7583   62.3862 C   0  0  0  0  0  0  0  0  0  0  0  0
  -39.1521   54.5437   61.5136 C   0  0  0  0  0  0  0  0  0  0  0  0
  -38.0672   53.5327   61.8698 C   0  0  0  0  0  0  0  0  0  0  0  0
  -36.6507   54.0826   61.6549 C   0  0  0  0  0  0  0  0  0  0  0  0
  -35.5275   53.0835   61.9879 C   0  0  0  0  0  0  0  0  0  0  0  0
  -35.5684   52.6012   63.4546 C   0  0  0  0  0  0  0  0  0  0  0  0
  -35.4367   53.7854   64.4164 C   0  0  0  0  0  0  0  0  0  0  0  0
  -35.4481   53.4193   65.8956 C   0  0  0  0  0  0  0  0  0  0  0  0
  -36.7277   52.7043   66.3035 C   0  0  0  0  0  0  0  0  0  0  0  0
  -37.0107   51.3781   65.5939 C   0  0  0  0  0  0  0  0  0  0  0  0
  -35.8684   50.4199   65.9030 C   0  0  0  0  0  0  0  0  0  0  0  0
  -35.9026   49.0247   65.2970 C   0  0  0  0  0  0  0  0  0  0  0  0
  -34.6795   48.2042   65.7362 C   0  0  0  0  0  0  0  0  0  0  0  0
  -34.6235   46.7798   65.1539 C   0  0  0  0  0  0  0  0  0  0  0  0
  -34.5636   46.7529   63.6284 C   0  0  0  0  0  0  0  0  0  0  0  0
  -36.4503   61.1334   65.5086 C   0  0  2  0  0  0  0  0  0  0  0  0
  -36.8674   59.7764   66.0936 C   0  0  1  0  0  0  0  0  0  0  0  0
  -35.6748   58.8694   66.4682 C   0  0  2  0  0  0  0  0  0  0  0  0
  -34.9197   58.6193   65.1921 C   0  0  2  0  0  0  0  0  0  0  0  0
  -34.5533   59.9423   64.5442 C   0  0  1  0  0  0  0  0  0  0  0  0
  -33.8212   59.4704   63.2899 C   0  0  0  0  0  0  0  0  0  0  0  0
  -36.9180   57.3486   68.3770 S   0  0  0  0  0  0  0  0  0  0  0  0
  -41.1688   60.9288   63.4857 H   0  0  0  0  0  0  0  0  0  0  0  0
  -38.1357   61.6183   63.3320 H   0  0  0  0  0  0  0  0  0  0  0  0
  -39.2690   62.6030   64.3261 H   0  0  0  0  0  0  0  0  0  0  0  0
  -38.6677   59.8099   64.6092 H   0  0  0  0  0  0  0  0  0  0  0  0
  -40.0308   58.5878   66.0547 H   0  0  0  0  0  0  0  0  0  0  0  0
  -39.6247   60.7776   66.7583 H   0  0  0  0  0  0  0  0  0  0  0  0
  -42.0502   61.5188   65.1139 H   0  0  0  0  0  0  0  0  0  0  0  0
  -40.6808   62.7424   67.4391 H   0  0  0  0  0  0  0  0  0  0  0  0
  -38.3351   60.6345   67.0402 H   0  0  0  0  0  0  0  0  0  0  0  0
  -43.3754   63.1642   66.1549 H   0  0  0  0  0  0  0  0  0  0  0  0
  -42.1584   64.4464   65.9471 H   0  0  0  0  0  0  0  0  0  0  0  0
  -43.2687   63.5154   68.5551 H   0  0  0  0  0  0  0  0  0  0  0  0
  -43.6930   65.0123   67.6628 H   0  0  0  0  0  0  0  0  0  0  0  0
  -38.1839   58.8813   67.9487 H   0  0  0  0  0  0  0  0  0  0  0  0
  -41.5008   65.8867   68.0121 H   0  0  0  0  0  0  0  0  0  0  0  0
  -41.0211   64.4192   68.8504 H   0  0  0  0  0  0  0  0  0  0  0  0
  -35.9083   56.9738   64.7342 H   0  0  0  0  0  0  0  0  0  0  0  0
  -42.6885   64.8461   70.5793 H   0  0  0  0  0  0  0  0  0  0  0  0
  -43.1492   66.3400   69.7060 H   0  0  0  0  0  0  0  0  0  0  0  0
  -41.8204   66.8355   71.6777 H   0  0  0  0  0  0  0  0  0  0  0  0
  -41.0183   67.2932   70.1534 H   0  0  0  0  0  0  0  0  0  0  0  0
  -32.3198   58.3104   62.8506 H   0  0  0  0  0  0  0  0  0  0  0  0
  -39.5786   65.3750   70.2998 H   0  0  0  0  0  0  0  0  0  0  0  0
  -40.3859   64.8941   71.8087 H   0  0  0  0  0  0  0  0  0  0  0  0
  -38.7631   67.3837   71.4314 H   0  0  0  0  0  0  0  0  0  0  0  0
  -38.2481   65.8956   72.2593 H   0  0  0  0  0  0  0  0  0  0  0  0
  -40.4781   67.6780   73.1195 H   0  0  0  0  0  0  0  0  0  0  0  0
  -38.8297   67.5669   73.8261 H   0  0  0  0  0  0  0  0  0  0  0  0
  -40.8680   65.4092   73.8725 H   0  0  0  0  0  0  0  0  0  0  0  0
  -40.4391   66.5045   75.2092 H   0  0  0  0  0  0  0  0  0  0  0  0
  -37.5488   55.4443   68.0574 H   0  0  0  0  0  0  0  0  0  0  0  0
  -39.4009   64.3318   75.4797 H   0  0  0  0  0  0  0  0  0  0  0  0
  -38.2172   65.6500   75.2218 H   0  0  0  0  0  0  0  0  0  0  0  0
  -37.8463   64.9258   72.9776 H   0  0  0  0  0  0  0  0  0  0  0  0
  -39.0354   63.6445   73.1722 H   0  0  0  0  0  0  0  0  0  0  0  0
  -36.7807   62.7838   73.4001 H   0  0  0  0  0  0  0  0  0  0  0  0
  -37.7158   62.6868   74.9345 H   0  0  0  0  0  0  0  0  0  0  0  0
  -35.5381   64.6180   74.3397 H   0  0  0  0  0  0  0  0  0  0  0  0
  -35.4327   63.2226   75.3860 H   0  0  0  0  0  0  0  0  0  0  0  0
  -36.4941   64.5472   75.8006 H   0  0  0  0  0  0  0  0  0  0  0  0
  -39.6324   57.7298   64.1520 H   0  0  0  0  0  0  0  0  0  0  0  0
  -38.6196   58.4273   62.9406 H   0  0  0  0  0  0  0  0  0  0  0  0
  -39.9144   57.2348   61.1845 H   0  0  0  0  0  0  0  0  0  0  0  0
  -40.9321   56.5397   62.4281 H   0  0  0  0  0  0  0  0  0  0  0  0
  -39.0012   55.4407   63.4066 H   0  0  0  0  0  0  0  0  0  0  0  0
  -37.9985   56.1612   62.1010 H   0  0  0  0  0  0  0  0  0  0  0  0
  -39.0714   54.8175   60.4824 H   0  0  0  0  0  0  0  0  0  0  0  0
  -40.1235   54.1247   61.6739 H   0  0  0  0  0  0  0  0  0  0  0  0
  -38.1939   52.6647   61.2572 H   0  0  0  0  0  0  0  0  0  0  0  0
  -38.1697   53.3021   62.9097 H   0  0  0  0  0  0  0  0  0  0  0  0
  -36.5278   54.9448   62.2764 H   0  0  0  0  0  0  0  0  0  0  0  0
  -36.5633   54.3065   60.6122 H   0  0  0  0  0  0  0  0  0  0  0  0
  -34.5849   53.5578   61.8106 H   0  0  0  0  0  0  0  0  0  0  0  0
  -35.6650   52.2256   61.3635 H   0  0  0  0  0  0  0  0  0  0  0  0
  -34.7607   51.9199   63.6232 H   0  0  0  0  0  0  0  0  0  0  0  0
  -36.5056   52.1161   63.6318 H   0  0  0  0  0  0  0  0  0  0  0  0
  -36.2522   54.4535   64.2337 H   0  0  0  0  0  0  0  0  0  0  0  0
  -34.4785   54.2212   64.2241 H   0  0  0  0  0  0  0  0  0  0  0  0
  -35.3559   54.3157   66.4727 H   0  0  0  0  0  0  0  0  0  0  0  0
  -34.6297   52.7536   66.0745 H   0  0  0  0  0  0  0  0  0  0  0  0
  -37.5477   53.3627   66.1061 H   0  0  0  0  0  0  0  0  0  0  0  0
  -36.6031   52.4574   67.3371 H   0  0  0  0  0  0  0  0  0  0  0  0
  -37.0733   51.5385   64.5379 H   0  0  0  0  0  0  0  0  0  0  0  0
  -37.9391   50.9683   65.9331 H   0  0  0  0  0  0  0  0  0  0  0  0
  -35.8355   50.3011   66.9659 H   0  0  0  0  0  0  0  0  0  0  0  0
  -35.0139   50.8791   65.4515 H   0  0  0  0  0  0  0  0  0  0  0  0
  -35.9046   49.1064   64.2301 H   0  0  0  0  0  0  0  0  0  0  0  0
  -36.7871   48.5269   65.6359 H   0  0  0  0  0  0  0  0  0  0  0  0
  -34.6935   48.1287   66.8034 H   0  0  0  0  0  0  0  0  0  0  0  0
  -33.8183   48.7190   65.3644 H   0  0  0  0  0  0  0  0  0  0  0  0
  -35.4978   46.2495   65.4689 H   0  0  0  0  0  0  0  0  0  0  0  0
  -33.7245   46.3252   65.5145 H   0  0  0  0  0  0  0  0  0  0  0  0
  -35.4493   47.2008   63.2287 H   0  0  0  0  0  0  0  0  0  0  0  0
  -34.4935   45.7395   63.2921 H   0  0  0  0  0  0  0  0  0  0  0  0
  -33.7061   47.2993   63.2954 H   0  0  0  0  0  0  0  0  0  0  0  0
  -35.8838   61.6578   66.2495 H   0  0  0  0  0  0  0  0  0  0  0  0
  -37.4312   59.2434   65.3568 H   0  0  0  0  0  0  0  0  0  0  0  0
  -35.1395   59.3811   67.2406 H   0  0  0  0  0  0  0  0  0  0  0  0
  -34.0200   58.0873   65.4213 H   0  0  0  0  0  0  0  0  0  0  0  0
  -33.9522   60.5771   65.1611 H   0  0  0  0  0  0  0  0  0  0  0  0
  -34.5068   58.9548   62.6503 H   0  0  0  0  0  0  0  0  0  0  0  0
  -33.4177   60.3170   62.7747 H   0  0  0  0  0  0  0  0  0  0  0  0
  1  4  1  0  0  0  0
  1 31  1  0  0  0  0
  1 56  1  0  0  0  0
  2  3  1  0  0  0  0
  2  4  1  0  0  0  0
  2 57  1  0  0  0  0
  2 58  1  0  0  0  0
  3 49  1  0  0  0  0
  4  6  1  0  0  0  0
  4 59  1  1  0  0  0
  5  6  1  0  0  0  0
  5 60  1  0  0  0  0
  6  8  1  0  0  0  0
  6 61  1  1  0  0  0
  7 31  2  0  0  0  0
  8  9  2  0  0  0  0
  8 62  1  0  0  0  0
  9 11  1  0  0  0  0
  9 63  1  0  0  0  0
 10 50  1  0  0  0  0
 10 64  1  0  0  0  0
 11 13  1  0  0  0  0
 11 65  1  0  0  0  0
 11 66  1  0  0  0  0
 12 51  1  0  0  0  0
 12 55  1  0  0  0  0
 13 15  1  0  0  0  0
 13 67  1  0  0  0  0
 13 68  1  0  0  0  0
 14 55  1  0  0  0  0
 14 69  1  0  0  0  0
 15 17  1  0  0  0  0
 15 70  1  0  0  0  0
 15 71  1  0  0  0  0
 16 52  1  0  0  0  0
 16 72  1  0  0  0  0
 17 19  1  0  0  0  0
 17 73  1  0  0  0  0
 17 74  1  0  0  0  0
 18 49  1  0  0  0  0
 18 53  1  0  0  0  0
 19 21  1  0  0  0  0
 19 75  1  0  0  0  0
 19 76  1  0  0  0  0
 20 54  1  0  0  0  0
 20 77  1  0  0  0  0
 21 22  1  0  0  0  0
 21 78  1  0  0  0  0
 21 79  1  0  0  0  0
 22 23  1  0  0  0  0
 22 80  1  0  0  0  0
 22 81  1  0  0  0  0
 23 25  1  0  0  0  0
 23 82  1  0  0  0  0
 23 83  1  0  0  0  0
 24 55  1  0  0  0  0
 25 27  1  0  0  0  0
 25 84  1  0  0  0  0
 25 85  1  0  0  0  0
 26 55  1  0  0  0  0
 26 86  1  0  0  0  0
 27 28  1  0  0  0  0
 27 87  1  0  0  0  0
 27 88  1  0  0  0  0
 28 29  1  0  0  0  0
 28 89  1  0  0  0  0
 28 90  1  0  0  0  0
 29 30  1  0  0  0  0
 29 91  1  0  0  0  0
 29 92  1  0  0  0  0
 30 93  1  0  0  0  0
 30 94  1  0  0  0  0
 30 95  1  0  0  0  0
 31 32  1  0  0  0  0
 32 33  1  0  0  0  0
 32 96  1  0  0  0  0
 32 97  1  0  0  0  0
 33 34  1  0  0  0  0
 33 98  1  0  0  0  0
 33 99  1  0  0  0  0
 34 35  1  0  0  0  0
 34100  1  0  0  0  0
 34101  1  0  0  0  0
 35 36  1  0  0  0  0
 35102  1  0  0  0  0
 35103  1  0  0  0  0
 36 37  1  0  0  0  0
 36104  1  0  0  0  0
 36105  1  0  0  0  0
 37 38  1  0  0  0  0
 37106  1  0  0  0  0
 37107  1  0  0  0  0
 38 39  1  0  0  0  0
 38108  1  0  0  0  0
 38109  1  0  0  0  0
 39 40  1  0  0  0  0
 39110  1  0  0  0  0
 39111  1  0  0  0  0
 40 41  1  0  0  0  0
 40112  1  0  0  0  0
 40113  1  0  0  0  0
 41 42  1  0  0  0  0
 41114  1  0  0  0  0
 41115  1  0  0  0  0
 42 43  1  0  0  0  0
 42116  1  0  0  0  0
 42117  1  0  0  0  0
 43 44  1  0  0  0  0
 43118  1  0  0  0  0
 43119  1  0  0  0  0
 44 45  1  0  0  0  0
 44120  1  0  0  0  0
 44121  1  0  0  0  0
 45 46  1  0  0  0  0
 45122  1  0  0  0  0
 45123  1  0  0  0  0
 46 47  1  0  0  0  0
 46124  1  0  0  0  0
 46125  1  0  0  0  0
 47 48  1  0  0  0  0
 47126  1  0  0  0  0
 47127  1  0  0  0  0
 48128  1  0  0  0  0
 48129  1  0  0  0  0
 48130  1  0  0  0  0
 49 50  1  0  0  0  0
 49131  1  1  0  0  0
 50 51  1  0  0  0  0
 50132  1  6  0  0  0
 51 52  1  0  0  0  0
 51133  1  1  0  0  0
 52 53  1  0  0  0  0
 52134  1  1  0  0  0
 53 54  1  0  0  0  0
 53135  1  1  0  0  0
 54136  1  0  0  0  0
 54137  1  0  0  0  0
M  CHG  1  24  -1
M  END
$$$$