/media/chris/experiments/cd1a-new-docking/inputs/ligands/1onq_ligand.pdb
 OpenBabel06222310383D

137137  0  0  1  0  0  0  0  0999 V2000
  -40.4920   60.2280   63.6270 N   0  0  0  0  0  0  0  0  0  0  0  0
  -38.5950   61.7730   64.2860 C   0  0  0  0  0  0  0  0  0  0  0  0
  -39.2927   63.0412   64.1953 O   0  0  0  0  0  0  0  0  0  0  0  0
  -39.4590   60.5300   64.5980 C   0  0  1  0  0  0  0  0  0  0  0  0
  -39.2569   60.8461   66.8904 O   0  0  0  0  0  0  0  0  0  0  0  0
  -40.2280   60.5370   65.9080 C   0  0  2  0  0  0  0  0  0  0  0  0
  -42.2618   61.3924   64.4390 O   0  0  0  0  0  0  0  0  0  0  0  0
  -40.8583   59.1606   66.1332 C   0  0  0  0  0  0  0  0  0  0  0  0
  -42.0897   58.8399   65.7007 C   0  0  0  0  0  0  0  0  0  0  0  0
  -40.3964   65.2906   62.8172 O   0  0  0  0  0  0  0  0  0  0  0  0
  -42.6490   57.4435   65.9661 C   0  0  0  0  0  0  0  0  0  0  0  0
  -39.3931   68.0416   63.2594 O   0  0  0  0  0  0  0  0  0  0  0  0
  -44.1767   57.4042   66.1175 C   0  0  0  0  0  0  0  0  0  0  0  0
  -41.2594   69.6187   62.3950 O   0  0  0  0  0  0  0  0  0  0  0  0
  -44.9803   57.8774   64.8922 C   0  0  0  0  0  0  0  0  0  0  0  0
  -38.1858   67.4358   65.6297 O   0  0  0  0  0  0  0  0  0  0  0  0
  -44.6770   56.9907   63.6605 C   0  0  0  0  0  0  0  0  0  0  0  0
  -37.5407   64.5807   64.8630 O   0  0  0  0  0  0  0  0  0  0  0  0
  -45.4207   57.3874   62.3601 C   0  0  0  0  0  0  0  0  0  0  0  0
  -34.8543   65.1971   65.8955 O   0  0  0  0  0  0  0  0  0  0  0  0
  -45.1122   56.4743   61.1502 C   0  0  0  0  0  0  0  0  0  0  0  0
  -45.8469   56.8922   59.8580 C   0  0  0  0  0  0  0  0  0  0  0  0
  -45.5574   55.9797   58.6602 C   0  0  0  0  0  0  0  0  0  0  0  0
  -41.7430   67.2649   62.7342 O   0  5  0  0  0  0  0  0  0  0  0  0
  -44.0941   55.8722   58.2363 C   0  0  0  0  0  0  0  0  0  0  0  0
  -40.4283   67.9769   60.8266 O   0  0  0  0  0  0  0  0  0  0  0  0
  -43.4568   57.2185   57.8396 C   0  0  0  0  0  0  0  0  0  0  0  0
  -41.9894   57.1416   57.3918 C   0  0  0  0  0  0  0  0  0  0  0  0
  -41.1058   56.5625   58.5004 C   0  0  0  0  0  0  0  0  0  0  0  0
  -39.6235   56.4475   58.1916 C   0  0  0  0  0  0  0  0  0  0  0  0
  -41.7615   60.6565   63.6107 C   0  0  0  0  0  0  0  0  0  0  0  0
  -42.5847   60.1680   62.4559 C   0  0  0  0  0  0  0  0  0  0  0  0
  -42.6099   58.6428   62.5563 C   0  0  0  0  0  0  0  0  0  0  0  0
  -41.1870   58.0925   62.4955 C   0  0  0  0  0  0  0  0  0  0  0  0
  -41.0530   56.5907   62.5667 C   0  0  0  0  0  0  0  0  0  0  0  0
  -41.7990   56.0042   61.3729 C   0  0  0  0  0  0  0  0  0  0  0  0
  -41.7524   54.4707   61.3395 C   0  0  0  0  0  0  0  0  0  0  0  0
  -42.3874   53.7921   62.5670 C   0  0  0  0  0  0  0  0  0  0  0  0
  -43.8850   54.1315   62.7330 C   0  0  0  0  0  0  0  0  0  0  0  0
  -44.4595   53.4458   63.9759 C   0  0  0  0  0  0  0  0  0  0  0  0
  -45.9409   53.7006   64.2263 C   0  0  0  0  0  0  0  0  0  0  0  0
  -46.8133   53.2057   63.0821 C   0  0  0  0  0  0  0  0  0  0  0  0
  -46.5328   53.8217   61.7095 C   0  0  0  0  0  0  0  0  0  0  0  0
  -47.5095   53.2187   60.7089 C   0  0  0  0  0  0  0  0  0  0  0  0
  -47.4273   53.6575   59.2543 C   0  0  0  0  0  0  0  0  0  0  0  0
  -47.6392   55.1742   59.1247 C   0  0  0  0  0  0  0  0  0  0  0  0
  -47.5891   55.7048   57.6801 C   0  0  0  0  0  0  0  0  0  0  0  0
  -47.7857   57.2160   57.5846 C   0  0  0  0  0  0  0  0  0  0  0  0
  -38.5707   64.2916   63.8868 C   0  0  2  0  0  0  0  0  0  0  0  0
  -39.4297   65.5603   63.7851 C   0  0  1  0  0  0  0  0  0  0  0  0
  -38.6385   66.8115   63.3449 C   0  0  2  0  0  0  0  0  0  0  0  0
  -37.5890   67.0373   64.3980 C   0  0  2  0  0  0  0  0  0  0  0  0
  -36.7643   65.7760   64.5802 C   0  0  1  0  0  0  0  0  0  0  0  0
  -35.7901   66.2089   65.6736 C   0  0  0  0  0  0  0  0  0  0  0  0
  -40.7155   68.2343   62.2663 S   0  0  0  0  0  0  0  0  0  0  0  0
  -40.2280   59.6342   62.8875 H   0  0  0  0  0  0  0  0  0  0  0  0
  -37.8608   61.8607   65.0594 H   0  0  0  0  0  0  0  0  0  0  0  0
  -38.1940   61.6005   63.3091 H   0  0  0  0  0  0  0  0  0  0  0  0
  -38.6677   59.8099   64.6092 H   0  0  0  0  0  0  0  0  0  0  0  0
  -38.8837   61.7234   66.7113 H   0  0  0  0  0  0  0  0  0  0  0  0
  -41.0317   61.2430   65.9299 H   0  0  0  0  0  0  0  0  0  0  0  0
  -40.3128   58.4462   66.6402 H   0  0  0  0  0  0  0  0  0  0  0  0
  -42.6561   59.5355   65.1904 H   0  0  0  0  0  0  0  0  0  0  0  0
  -40.9043   64.5062   63.0773 H   0  0  0  0  0  0  0  0  0  0  0  0
  -42.2112   57.0710   66.8686 H   0  0  0  0  0  0  0  0  0  0  0  0
  -42.4056   56.8440   65.1139 H   0  0  0  0  0  0  0  0  0  0  0  0
  -44.4414   58.0281   66.9455 H   0  0  0  0  0  0  0  0  0  0  0  0
  -44.4305   56.3736   66.2531 H   0  0  0  0  0  0  0  0  0  0  0  0
  -41.4526   69.8047   63.3272 H   0  0  0  0  0  0  0  0  0  0  0  0
  -44.7161   58.8900   64.6691 H   0  0  0  0  0  0  0  0  0  0  0  0
  -46.0238   57.8060   65.1177 H   0  0  0  0  0  0  0  0  0  0  0  0
  -38.7070   68.2420   65.4906 H   0  0  0  0  0  0  0  0  0  0  0  0
  -44.9483   55.9843   63.9027 H   0  0  0  0  0  0  0  0  0  0  0  0
  -43.6343   57.1157   63.4552 H   0  0  0  0  0  0  0  0  0  0  0  0
  -45.1409   58.3882   62.1054 H   0  0  0  0  0  0  0  0  0  0  0  0
  -46.4669   57.2884   62.5616 H   0  0  0  0  0  0  0  0  0  0  0  0
  -34.2368   65.4744   66.5903 H   0  0  0  0  0  0  0  0  0  0  0  0
  -45.4041   55.4750   61.3973 H   0  0  0  0  0  0  0  0  0  0  0  0
  -44.0633   56.5552   60.9552 H   0  0  0  0  0  0  0  0  0  0  0  0
  -45.5454   57.8872   59.6050 H   0  0  0  0  0  0  0  0  0  0  0  0
  -46.8956   56.8211   60.0583 H   0  0  0  0  0  0  0  0  0  0  0  0
  -46.1134   56.3507   57.8246 H   0  0  0  0  0  0  0  0  0  0  0  0
  -45.8392   54.9961   58.9731 H   0  0  0  0  0  0  0  0  0  0  0  0
  -44.0344   55.2112   57.3970 H   0  0  0  0  0  0  0  0  0  0  0  0
  -43.5514   55.5103   59.0845 H   0  0  0  0  0  0  0  0  0  0  0  0
  -39.7589   68.6050   60.5130 H   0  0  0  0  0  0  0  0  0  0  0  0
  -43.5110   57.8721   58.6851 H   0  0  0  0  0  0  0  0  0  0  0  0
  -44.0077   57.5691   56.9919 H   0  0  0  0  0  0  0  0  0  0  0  0
  -41.6459   58.1254   57.1489 H   0  0  0  0  0  0  0  0  0  0  0  0
  -41.9273   56.5007   56.5373 H   0  0  0  0  0  0  0  0  0  0  0  0
  -41.4682   55.5815   58.7265 H   0  0  0  0  0  0  0  0  0  0  0  0
  -41.1742   57.2579   59.3107 H   0  0  0  0  0  0  0  0  0  0  0  0
  -39.4798   55.7615   57.3831 H   0  0  0  0  0  0  0  0  0  0  0  0
  -39.1054   56.0918   59.0575 H   0  0  0  0  0  0  0  0  0  0  0  0
  -39.2410   57.4082   57.9165 H   0  0  0  0  0  0  0  0  0  0  0  0
  -42.1401   60.4704   61.5308 H   0  0  0  0  0  0  0  0  0  0  0  0
  -43.5740   60.5745   62.4862 H   0  0  0  0  0  0  0  0  0  0  0  0
  -43.1794   58.2434   61.7432 H   0  0  0  0  0  0  0  0  0  0  0  0
  -43.0571   58.3590   63.4860 H   0  0  0  0  0  0  0  0  0  0  0  0
  -40.6400   58.5089   63.3154 H   0  0  0  0  0  0  0  0  0  0  0  0
  -40.8124   58.3694   61.5322 H   0  0  0  0  0  0  0  0  0  0  0  0
  -41.4811   56.2289   63.4782 H   0  0  0  0  0  0  0  0  0  0  0  0
  -40.0224   56.3038   62.5438 H   0  0  0  0  0  0  0  0  0  0  0  0
  -41.3558   56.3797   60.4743 H   0  0  0  0  0  0  0  0  0  0  0  0
  -42.8254   56.2942   61.4593 H   0  0  0  0  0  0  0  0  0  0  0  0
  -40.7279   54.1676   61.2812 H   0  0  0  0  0  0  0  0  0  0  0  0
  -42.3249   54.1646   60.4889 H   0  0  0  0  0  0  0  0  0  0  0  0
  -41.8650   54.1140   63.4436 H   0  0  0  0  0  0  0  0  0  0  0  0
  -42.3115   52.7343   62.4245 H   0  0  0  0  0  0  0  0  0  0  0  0
  -44.4191   53.7969   61.8684 H   0  0  0  0  0  0  0  0  0  0  0  0
  -43.9878   55.1906   62.8453 H   0  0  0  0  0  0  0  0  0  0  0  0
  -43.9143   53.7934   64.8284 H   0  0  0  0  0  0  0  0  0  0  0  0
  -44.3616   52.3935   63.8085 H   0  0  0  0  0  0  0  0  0  0  0  0
  -46.0937   54.7529   64.3454 H   0  0  0  0  0  0  0  0  0  0  0  0
  -46.2211   53.1628   65.1079 H   0  0  0  0  0  0  0  0  0  0  0  0
  -47.8321   53.4153   63.3330 H   0  0  0  0  0  0  0  0  0  0  0  0
  -46.5926   52.1636   62.9811 H   0  0  0  0  0  0  0  0  0  0  0  0
  -45.5285   53.6026   61.4125 H   0  0  0  0  0  0  0  0  0  0  0  0
  -46.6535   54.8841   61.7495 H   0  0  0  0  0  0  0  0  0  0  0  0
  -48.4960   53.4500   61.0527 H   0  0  0  0  0  0  0  0  0  0  0  0
  -47.2486   52.1813   60.6831 H   0  0  0  0  0  0  0  0  0  0  0  0
  -48.1826   53.1492   58.6921 H   0  0  0  0  0  0  0  0  0  0  0  0
  -46.4549   53.4154   58.8792 H   0  0  0  0  0  0  0  0  0  0  0  0
  -46.8754   55.6677   59.6887 H   0  0  0  0  0  0  0  0  0  0  0  0
  -48.6248   55.3760   59.4891 H   0  0  0  0  0  0  0  0  0  0  0  0
  -48.3613   55.2256   57.1153 H   0  0  0  0  0  0  0  0  0  0  0  0
  -46.6144   55.4871   57.2961 H   0  0  0  0  0  0  0  0  0  0  0  0
  -48.7534   57.4743   57.9609 H   0  0  0  0  0  0  0  0  0  0  0  0
  -47.7072   57.5220   56.5623 H   0  0  0  0  0  0  0  0  0  0  0  0
  -47.0341   57.7107   58.1637 H   0  0  0  0  0  0  0  0  0  0  0  0
  -38.1706   64.0792   62.9174 H   0  0  0  0  0  0  0  0  0  0  0  0
  -39.8304   65.7822   64.7521 H   0  0  0  0  0  0  0  0  0  0  0  0
  -38.2799   66.6080   62.3576 H   0  0  0  0  0  0  0  0  0  0  0  0
  -36.9429   67.8280   64.0783 H   0  0  0  0  0  0  0  0  0  0  0  0
  -36.2694   65.4476   63.6902 H   0  0  0  0  0  0  0  0  0  0  0  0
  -35.2842   67.1006   65.3670 H   0  0  0  0  0  0  0  0  0  0  0  0
  -36.3313   66.3964   66.5774 H   0  0  0  0  0  0  0  0  0  0  0  0
  1  4  1  0  0  0  0
  1 31  1  0  0  0  0
  1 56  1  0  0  0  0
  2  3  1  0  0  0  0
  2  4  1  0  0  0  0
  2 57  1  0  0  0  0
  2 58  1  0  0  0  0
  3 49  1  0  0  0  0
  4  6  1  0  0  0  0
  4 59  1  1  0  0  0
  5  6  1  0  0  0  0
  5 60  1  0  0  0  0
  6  8  1  0  0  0  0
  6 61  1  6  0  0  0
  7 31  2  0  0  0  0
  8  9  2  0  0  0  0
  8 62  1  0  0  0  0
  9 11  1  0  0  0  0
  9 63  1  0  0  0  0
 10 50  1  0  0  0  0
 10 64  1  0  0  0  0
 11 13  1  0  0  0  0
 11 65  1  0  0  0  0
 11 66  1  0  0  0  0
 12 51  1  0  0  0  0
 12 55  1  0  0  0  0
 13 15  1  0  0  0  0
 13 67  1  0  0  0  0
 13 68  1  0  0  0  0
 14 55  1  0  0  0  0
 14 69  1  0  0  0  0
 15 17  1  0  0  0  0
 15 70  1  0  0  0  0
 15 71  1  0  0  0  0
 16 52  1  0  0  0  0
 16 72  1  0  0  0  0
 17 19  1  0  0  0  0
 17 73  1  0  0  0  0
 17 74  1  0  0  0  0
 18 49  1  0  0  0  0
 18 53  1  0  0  0  0
 19 21  1  0  0  0  0
 19 75  1  0  0  0  0
 19 76  1  0  0  0  0
 20 54  1  0  0  0  0
 20 77  1  0  0  0  0
 21 22  1  0  0  0  0
 21 78  1  0  0  0  0
 21 79  1  0  0  0  0
 22 23  1  0  0  0  0
 22 80  1  0  0  0  0
 22 81  1  0  0  0  0
 23 25  1  0  0  0  0
 23 82  1  0  0  0  0
 23 83  1  0  0  0  0
 24 55  1  0  0  0  0
 25 27  1  0  0  0  0
 25 84  1  0  0  0  0
 25 85  1  0  0  0  0
 26 55  1  0  0  0  0
 26 86  1  0  0  0  0
 27 28  1  0  0  0  0
 27 87  1  0  0  0  0
 27 88  1  0  0  0  0
 28 29  1  0  0  0  0
 28 89  1  0  0  0  0
 28 90  1  0  0  0  0
 29 30  1  0  0  0  0
 29 91  1  0  0  0  0
 29 92  1  0  0  0  0
 30 93  1  0  0  0  0
 30 94  1  0  0  0  0
 30 95  1  0  0  0  0
 31 32  1  0  0  0  0
 32 33  1  0  0  0  0
 32 96  1  0  0  0  0
 32 97  1  0  0  0  0
 33 34  1  0  0  0  0
 33 98  1  0  0  0  0
 33 99  1  0  0  0  0
 34 35  1  0  0  0  0
 34100  1  0  0  0  0
 34101  1  0  0  0  0
 35 36  1  0  0  0  0
 35102  1  0  0  0  0
 35103  1  0  0  0  0
 36 37  1  0  0  0  0
 36104  1  0  0  0  0
 36105  1  0  0  0  0
 37 38  1  0  0  0  0
 37106  1  0  0  0  0
 37107  1  0  0  0  0
 38 39  1  0  0  0  0
 38108  1  0  0  0  0
 38109  1  0  0  0  0
 39 40  1  0  0  0  0
 39110  1  0  0  0  0
 39111  1  0  0  0  0
 40 41  1  0  0  0  0
 40112  1  0  0  0  0
 40113  1  0  0  0  0
 41 42  1  0  0  0  0
 41114  1  0  0  0  0
 41115  1  0  0  0  0
 42 43  1  0  0  0  0
 42116  1  0  0  0  0
 42117  1  0  0  0  0
 43 44  1  0  0  0  0
 43118  1  0  0  0  0
 43119  1  0  0  0  0
 44 45  1  0  0  0  0
 44120  1  0  0  0  0
 44121  1  0  0  0  0
 45 46  1  0  0  0  0
 45122  1  0  0  0  0
 45123  1  0  0  0  0
 46 47  1  0  0  0  0
 46124  1  0  0  0  0
 46125  1  0  0  0  0
 47 48  1  0  0  0  0
 47126  1  0  0  0  0
 47127  1  0  0  0  0
 48128  1  0  0  0  0
 48129  1  0  0  0  0
 48130  1  0  0  0  0
 49 50  1  0  0  0  0
 49131  1  6  0  0  0
 50 51  1  0  0  0  0
 50132  1  1  0  0  0
 51 52  1  0  0  0  0
 51133  1  6  0  0  0
 52 53  1  0  0  0  0
 52134  1  6  0  0  0
 53 54  1  0  0  0  0
 53135  1  6  0  0  0
 54136  1  0  0  0  0
 54137  1  0  0  0  0
M  CHG  1  24  -1
M  END
$$$$