/media/chris/experiments/cd1a-new-docking/inputs/ligands/1onq_ligand.pdb
 OpenBabel06222310383D

137137  0  0  1  0  0  0  0  0999 V2000
  -40.4920   60.2280   63.6270 N   0  0  0  0  0  0  0  0  0  0  0  0
  -38.5950   61.7730   64.2860 C   0  0  0  0  0  0  0  0  0  0  0  0
  -39.2927   63.0412   64.1953 O   0  0  0  0  0  0  0  0  0  0  0  0
  -39.4590   60.5300   64.5980 C   0  0  1  0  0  0  0  0  0  0  0  0
  -40.7577   59.2290   66.0180 O   0  0  0  0  0  0  0  0  0  0  0  0
  -40.2280   60.5370   65.9080 C   0  0  2  0  0  0  0  0  0  0  0  0
  -41.2545   59.7022   61.5559 O   0  0  0  0  0  0  0  0  0  0  0  0
  -41.3266   61.6007   65.8452 C   0  0  0  0  0  0  0  0  0  0  0  0
  -42.4907   61.4906   66.5078 C   0  0  0  0  0  0  0  0  0  0  0  0
  -41.5274   64.7916   64.5408 O   0  0  0  0  0  0  0  0  0  0  0  0
  -43.5385   62.5962   66.3929 C   0  0  0  0  0  0  0  0  0  0  0  0
  -42.9129   66.0321   62.2361 O   0  0  0  0  0  0  0  0  0  0  0  0
  -44.9849   62.0984   66.5283 C   0  0  0  0  0  0  0  0  0  0  0  0
  -44.2310   68.0419   63.2060 O   0  0  0  0  0  0  0  0  0  0  0  0
  -45.3341   61.4211   67.8665 C   0  0  0  0  0  0  0  0  0  0  0  0
  -40.8460   65.6061   60.5071 O   0  0  0  0  0  0  0  0  0  0  0  0
  -46.8080   60.9490   67.8749 C   0  0  0  0  0  0  0  0  0  0  0  0
  -39.9128   63.0603   61.8500 O   0  0  0  0  0  0  0  0  0  0  0  0
  -47.2765   60.2655   69.1845 C   0  0  0  0  0  0  0  0  0  0  0  0
  -39.5569   64.2215   59.1827 O   0  0  0  0  0  0  0  0  0  0  0  0
  -47.1868   61.1683   70.4373 C   0  0  0  0  0  0  0  0  0  0  0  0
  -47.6405   60.4683   71.7367 C   0  0  0  0  0  0  0  0  0  0  0  0
  -47.5695   61.3649   72.9786 C   0  0  0  0  0  0  0  0  0  0  0  0
  -42.5271   66.9638   64.5564 O   0  5  0  0  0  0  0  0  0  0  0  0
  -48.4325   62.6246   72.9474 C   0  0  0  0  0  0  0  0  0  0  0  0
  -44.6695   65.8854   64.2078 O   0  0  0  0  0  0  0  0  0  0  0  0
  -49.9422   62.3457   72.8103 C   0  0  0  0  0  0  0  0  0  0  0  0
  -50.3529   61.5692   71.5499 C   0  0  0  0  0  0  0  0  0  0  0  0
  -49.9421   62.3228   70.2817 C   0  0  0  0  0  0  0  0  0  0  0  0
  -50.3056   61.6690   68.9603 C   0  0  0  0  0  0  0  0  0  0  0  0
  -40.3447   59.9361   62.3275 C   0  0  0  0  0  0  0  0  0  0  0  0
  -38.9282   59.9171   61.8348 C   0  0  0  0  0  0  0  0  0  0  0  0
  -38.9924   59.5851   60.3439 C   0  0  0  0  0  0  0  0  0  0  0  0
  -39.7914   60.6559   59.6050 C   0  0  0  0  0  0  0  0  0  0  0  0
  -39.9553   60.4535   58.1182 C   0  0  0  0  0  0  0  0  0  0  0  0
  -40.7601   61.6314   57.5787 C   0  0  0  0  0  0  0  0  0  0  0  0
  -41.0122   61.5350   56.0681 C   0  0  0  0  0  0  0  0  0  0  0  0
  -41.8079   62.7164   55.4834 C   0  0  0  0  0  0  0  0  0  0  0  0
  -43.2018   62.8793   56.1283 C   0  0  0  0  0  0  0  0  0  0  0  0
  -43.0740   63.1411   57.6317 C   0  0  0  0  0  0  0  0  0  0  0  0
  -44.3957   63.3013   58.3731 C   0  0  0  0  0  0  0  0  0  0  0  0
  -45.2271   64.4534   57.8286 C   0  0  0  0  0  0  0  0  0  0  0  0
  -46.5674   64.7013   58.5245 C   0  0  0  0  0  0  0  0  0  0  0  0
  -46.2915   65.0267   59.9862 C   0  0  0  0  0  0  0  0  0  0  0  0
  -47.4710   65.3005   60.9076 C   0  0  0  0  0  0  0  0  0  0  0  0
  -46.9926   65.6250   62.3317 C   0  0  0  0  0  0  0  0  0  0  0  0
  -48.1246   65.8997   63.3386 C   0  0  0  0  0  0  0  0  0  0  0  0
  -49.0699   64.7147   63.5228 C   0  0  0  0  0  0  0  0  0  0  0  0
  -40.3719   63.2523   63.2102 C   0  0  2  0  0  0  0  0  0  0  0  0
  -41.0541   64.6276   63.2396 C   0  0  1  0  0  0  0  0  0  0  0  0
  -42.2500   64.7478   62.2697 C   0  0  2  0  0  0  0  0  0  0  0  0
  -41.6957   64.5273   60.8893 C   0  0  2  0  0  0  0  0  0  0  0  0
  -40.9480   63.2071   60.8409 C   0  0  1  0  0  0  0  0  0  0  0  0
  -40.4693   63.1856   59.3909 C   0  0  0  0  0  0  0  0  0  0  0  0
  -43.6188   66.7305   63.5725 S   0  0  0  0  0  0  0  0  0  0  0  0
  -41.4169   60.2387   63.9642 H   0  0  0  0  0  0  0  0  0  0  0  0
  -37.8608   61.8607   65.0594 H   0  0  0  0  0  0  0  0  0  0  0  0
  -38.1940   61.6005   63.3091 H   0  0  0  0  0  0  0  0  0  0  0  0
  -38.6677   59.8099   64.6092 H   0  0  0  0  0  0  0  0  0  0  0  0
  -40.0308   58.5878   66.0547 H   0  0  0  0  0  0  0  0  0  0  0  0
  -39.6247   60.7776   66.7583 H   0  0  0  0  0  0  0  0  0  0  0  0
  -41.1662   62.4408   65.2677 H   0  0  0  0  0  0  0  0  0  0  0  0
  -42.6763   60.6610   67.0928 H   0  0  0  0  0  0  0  0  0  0  0  0
  -40.7886   64.7191   65.1651 H   0  0  0  0  0  0  0  0  0  0  0  0
  -43.4313   63.0640   65.4366 H   0  0  0  0  0  0  0  0  0  0  0  0
  -43.3657   63.2735   67.2030 H   0  0  0  0  0  0  0  0  0  0  0  0
  -45.1643   61.3916   65.7452 H   0  0  0  0  0  0  0  0  0  0  0  0
  -45.6008   62.9716   66.4733 H   0  0  0  0  0  0  0  0  0  0  0  0
  -43.5608   68.6066   62.7902 H   0  0  0  0  0  0  0  0  0  0  0  0
  -45.1850   62.1200   68.6629 H   0  0  0  0  0  0  0  0  0  0  0  0
  -44.7001   60.5689   67.9954 H   0  0  0  0  0  0  0  0  0  0  0  0
  -41.3431   66.4383   60.5450 H   0  0  0  0  0  0  0  0  0  0  0  0
  -46.9365   60.2516   67.0737 H   0  0  0  0  0  0  0  0  0  0  0  0
  -47.4026   61.8328   67.7731 H   0  0  0  0  0  0  0  0  0  0  0  0
  -46.6668   59.4017   69.3489 H   0  0  0  0  0  0  0  0  0  0  0  0
  -48.3104   60.0238   69.0526 H   0  0  0  0  0  0  0  0  0  0  0  0
  -39.2544   64.2057   58.2613 H   0  0  0  0  0  0  0  0  0  0  0  0
  -47.8067   62.0264   70.2811 H   0  0  0  0  0  0  0  0  0  0  0  0
  -46.1567   61.4284   70.5639 H   0  0  0  0  0  0  0  0  0  0  0  0
  -47.0125   59.6172   71.8985 H   0  0  0  0  0  0  0  0  0  0  0  0
  -48.6676   60.1994   71.6041 H   0  0  0  0  0  0  0  0  0  0  0  0
  -46.5514   61.6690   73.1046 H   0  0  0  0  0  0  0  0  0  0  0  0
  -47.9535   60.7730   73.7830 H   0  0  0  0  0  0  0  0  0  0  0  0
  -48.1239   63.2235   72.1162 H   0  0  0  0  0  0  0  0  0  0  0  0
  -48.2926   63.1195   73.8856 H   0  0  0  0  0  0  0  0  0  0  0  0
  -45.3857   65.7282   63.5728 H   0  0  0  0  0  0  0  0  0  0  0  0
  -50.4529   63.2859   72.8007 H   0  0  0  0  0  0  0  0  0  0  0  0
  -50.2057   61.7242   73.6405 H   0  0  0  0  0  0  0  0  0  0  0  0
  -51.4148   61.4382   71.5504 H   0  0  0  0  0  0  0  0  0  0  0  0
  -49.8576   60.6208   71.5579 H   0  0  0  0  0  0  0  0  0  0  0  0
  -48.8791   62.4426   70.3040 H   0  0  0  0  0  0  0  0  0  0  0  0
  -50.4921   63.2403   70.3056 H   0  0  0  0  0  0  0  0  0  0  0  0
  -49.7867   60.7378   68.8684 H   0  0  0  0  0  0  0  0  0  0  0  0
  -50.0256   62.3145   68.1541 H   0  0  0  0  0  0  0  0  0  0  0  0
  -51.3607   61.4941   68.9272 H   0  0  0  0  0  0  0  0  0  0  0  0
  -38.3654   59.1710   62.3559 H   0  0  0  0  0  0  0  0  0  0  0  0
  -38.4475   60.8584   62.0015 H   0  0  0  0  0  0  0  0  0  0  0  0
  -39.4667   58.6350   60.2124 H   0  0  0  0  0  0  0  0  0  0  0  0
  -37.9988   59.5522   59.9480 H   0  0  0  0  0  0  0  0  0  0  0  0
  -39.2984   61.5936   59.7550 H   0  0  0  0  0  0  0  0  0  0  0  0
  -40.7798   60.6096   60.0123 H   0  0  0  0  0  0  0  0  0  0  0  0
  -40.4769   59.5384   57.9298 H   0  0  0  0  0  0  0  0  0  0  0  0
  -39.0003   60.3997   57.6386 H   0  0  0  0  0  0  0  0  0  0  0  0
  -40.2215   62.5341   57.7789 H   0  0  0  0  0  0  0  0  0  0  0  0
  -41.7125   61.6220   58.0663 H   0  0  0  0  0  0  0  0  0  0  0  0
  -41.5582   60.6351   55.8760 H   0  0  0  0  0  0  0  0  0  0  0  0
  -40.0525   61.5473   55.5952 H   0  0  0  0  0  0  0  0  0  0  0  0
  -41.9342   62.5565   54.4330 H   0  0  0  0  0  0  0  0  0  0  0  0
  -41.2537   63.6089   55.6863 H   0  0  0  0  0  0  0  0  0  0  0  0
  -43.7672   61.9839   55.9743 H   0  0  0  0  0  0  0  0  0  0  0  0
  -43.6963   63.7125   55.6743 H   0  0  0  0  0  0  0  0  0  0  0  0
  -42.5079   64.0392   57.7650 H   0  0  0  0  0  0  0  0  0  0  0  0
  -42.6019   62.2752   58.0466 H   0  0  0  0  0  0  0  0  0  0  0  0
  -44.1902   63.4839   59.4072 H   0  0  0  0  0  0  0  0  0  0  0  0
  -44.9573   62.4004   58.2395 H   0  0  0  0  0  0  0  0  0  0  0  0
  -45.4262   64.2541   56.7963 H   0  0  0  0  0  0  0  0  0  0  0  0
  -44.6456   65.3350   58.0003 H   0  0  0  0  0  0  0  0  0  0  0  0
  -47.1779   63.8251   58.4574 H   0  0  0  0  0  0  0  0  0  0  0  0
  -47.0826   65.5137   58.0558 H   0  0  0  0  0  0  0  0  0  0  0  0
  -45.6695   65.8972   60.0034 H   0  0  0  0  0  0  0  0  0  0  0  0
  -45.8596   64.1287   60.3759 H   0  0  0  0  0  0  0  0  0  0  0  0
  -48.0996   64.4351   60.9383 H   0  0  0  0  0  0  0  0  0  0  0  0
  -48.0116   66.1426   60.5290 H   0  0  0  0  0  0  0  0  0  0  0  0
  -46.3689   66.4933   62.2849 H   0  0  0  0  0  0  0  0  0  0  0  0
  -46.4756   64.7571   62.6842 H   0  0  0  0  0  0  0  0  0  0  0  0
  -48.6931   66.7367   62.9906 H   0  0  0  0  0  0  0  0  0  0  0  0
  -47.6663   66.0898   64.2866 H   0  0  0  0  0  0  0  0  0  0  0  0
  -49.5494   64.4931   62.5923 H   0  0  0  0  0  0  0  0  0  0  0  0
  -49.8098   64.9593   64.2560 H   0  0  0  0  0  0  0  0  0  0  0  0
  -48.5128   63.8614   63.8491 H   0  0  0  0  0  0  0  0  0  0  0  0
  -41.0884   62.5164   63.5101 H   0  0  0  0  0  0  0  0  0  0  0  0
  -40.3450   65.3693   62.9365 H   0  0  0  0  0  0  0  0  0  0  0  0
  -42.9797   64.0400   62.6037 H   0  0  0  0  0  0  0  0  0  0  0  0
  -42.5072   64.4892   60.1929 H   0  0  0  0  0  0  0  0  0  0  0  0
  -41.5483   62.3577   61.0920 H   0  0  0  0  0  0  0  0  0  0  0  0
  -39.9961   62.2480   59.1861 H   0  0  0  0  0  0  0  0  0  0  0  0
  -41.3075   63.3143   58.7383 H   0  0  0  0  0  0  0  0  0  0  0  0
  1  4  1  0  0  0  0
  1 31  1  0  0  0  0
  1 56  1  0  0  0  0
  2  3  1  0  0  0  0
  2  4  1  0  0  0  0
  2 57  1  0  0  0  0
  2 58  1  0  0  0  0
  3 49  1  0  0  0  0
  4  6  1  0  0  0  0
  4 59  1  1  0  0  0
  5  6  1  0  0  0  0
  5 60  1  0  0  0  0
  6  8  1  0  0  0  0
  6 61  1  1  0  0  0
  7 31  2  0  0  0  0
  8  9  2  0  0  0  0
  8 62  1  0  0  0  0
  9 11  1  0  0  0  0
  9 63  1  0  0  0  0
 10 50  1  0  0  0  0
 10 64  1  0  0  0  0
 11 13  1  0  0  0  0
 11 65  1  0  0  0  0
 11 66  1  0  0  0  0
 12 51  1  0  0  0  0
 12 55  1  0  0  0  0
 13 15  1  0  0  0  0
 13 67  1  0  0  0  0
 13 68  1  0  0  0  0
 14 55  1  0  0  0  0
 14 69  1  0  0  0  0
 15 17  1  0  0  0  0
 15 70  1  0  0  0  0
 15 71  1  0  0  0  0
 16 52  1  0  0  0  0
 16 72  1  0  0  0  0
 17 19  1  0  0  0  0
 17 73  1  0  0  0  0
 17 74  1  0  0  0  0
 18 49  1  0  0  0  0
 18 53  1  0  0  0  0
 19 21  1  0  0  0  0
 19 75  1  0  0  0  0
 19 76  1  0  0  0  0
 20 54  1  0  0  0  0
 20 77  1  0  0  0  0
 21 22  1  0  0  0  0
 21 78  1  0  0  0  0
 21 79  1  0  0  0  0
 22 23  1  0  0  0  0
 22 80  1  0  0  0  0
 22 81  1  0  0  0  0
 23 25  1  0  0  0  0
 23 82  1  0  0  0  0
 23 83  1  0  0  0  0
 24 55  1  0  0  0  0
 25 27  1  0  0  0  0
 25 84  1  0  0  0  0
 25 85  1  0  0  0  0
 26 55  1  0  0  0  0
 26 86  1  0  0  0  0
 27 28  1  0  0  0  0
 27 87  1  0  0  0  0
 27 88  1  0  0  0  0
 28 29  1  0  0  0  0
 28 89  1  0  0  0  0
 28 90  1  0  0  0  0
 29 30  1  0  0  0  0
 29 91  1  0  0  0  0
 29 92  1  0  0  0  0
 30 93  1  0  0  0  0
 30 94  1  0  0  0  0
 30 95  1  0  0  0  0
 31 32  1  0  0  0  0
 32 33  1  0  0  0  0
 32 96  1  0  0  0  0
 32 97  1  0  0  0  0
 33 34  1  0  0  0  0
 33 98  1  0  0  0  0
 33 99  1  0  0  0  0
 34 35  1  0  0  0  0
 34100  1  0  0  0  0
 34101  1  0  0  0  0
 35 36  1  0  0  0  0
 35102  1  0  0  0  0
 35103  1  0  0  0  0
 36 37  1  0  0  0  0
 36104  1  0  0  0  0
 36105  1  0  0  0  0
 37 38  1  0  0  0  0
 37106  1  0  0  0  0
 37107  1  0  0  0  0
 38 39  1  0  0  0  0
 38108  1  0  0  0  0
 38109  1  0  0  0  0
 39 40  1  0  0  0  0
 39110  1  0  0  0  0
 39111  1  0  0  0  0
 40 41  1  0  0  0  0
 40112  1  0  0  0  0
 40113  1  0  0  0  0
 41 42  1  0  0  0  0
 41114  1  0  0  0  0
 41115  1  0  0  0  0
 42 43  1  0  0  0  0
 42116  1  0  0  0  0
 42117  1  0  0  0  0
 43 44  1  0  0  0  0
 43118  1  0  0  0  0
 43119  1  0  0  0  0
 44 45  1  0  0  0  0
 44120  1  0  0  0  0
 44121  1  0  0  0  0
 45 46  1  0  0  0  0
 45122  1  0  0  0  0
 45123  1  0  0  0  0
 46 47  1  0  0  0  0
 46124  1  0  0  0  0
 46125  1  0  0  0  0
 47 48  1  0  0  0  0
 47126  1  0  0  0  0
 47127  1  0  0  0  0
 48128  1  0  0  0  0
 48129  1  0  0  0  0
 48130  1  0  0  0  0
 49 50  1  0  0  0  0
 49131  1  1  0  0  0
 50 51  1  0  0  0  0
 50132  1  6  0  0  0
 51 52  1  0  0  0  0
 51133  1  1  0  0  0
 52 53  1  0  0  0  0
 52134  1  6  0  0  0
 53 54  1  0  0  0  0
 53135  1  1  0  0  0
 54136  1  0  0  0  0
 54137  1  0  0  0  0
M  CHG  1  24  -1
M  END
$$$$