/media/chris/experiments/cd1a-new-docking/inputs/ligands/1onq_ligand.pdb
 OpenBabel06222310383D

137137  0  0  1  0  0  0  0  0999 V2000
  -40.4920   60.2280   63.6270 N   0  0  0  0  0  0  0  0  0  0  0  0
  -38.5950   61.7730   64.2860 C   0  0  0  0  0  0  0  0  0  0  0  0
  -37.5441   62.0867   65.2349 O   0  0  0  0  0  0  0  0  0  0  0  0
  -39.4590   60.5300   64.5980 C   0  0  1  0  0  0  0  0  0  0  0  0
  -39.2569   60.8461   66.8904 O   0  0  0  0  0  0  0  0  0  0  0  0
  -40.2280   60.5370   65.9080 C   0  0  2  0  0  0  0  0  0  0  0  0
  -39.4065   58.8441   62.1938 O   0  0  0  0  0  0  0  0  0  0  0  0
  -40.8583   59.1606   66.1332 C   0  0  0  0  0  0  0  0  0  0  0  0
  -41.0723   58.6448   67.3556 C   0  0  0  0  0  0  0  0  0  0  0  0
  -36.3260   63.5957   67.3365 O   0  0  0  0  0  0  0  0  0  0  0  0
  -41.7060   57.2621   67.4971 C   0  0  0  0  0  0  0  0  0  0  0  0
  -33.7882   65.0685   66.9357 O   0  0  0  0  0  0  0  0  0  0  0  0
  -40.8212   56.2451   68.2326 C   0  0  0  0  0  0  0  0  0  0  0  0
  -35.0671   66.3399   68.7971 O   0  0  0  0  0  0  0  0  0  0  0  0
  -39.4490   55.9685   67.5909 C   0  0  0  0  0  0  0  0  0  0  0  0
  -33.0907   63.6620   64.7045 O   0  0  0  0  0  0  0  0  0  0  0  0
  -38.6610   54.9185   68.4105 C   0  0  0  0  0  0  0  0  0  0  0  0
  -35.9395   63.1998   63.7956 O   0  0  0  0  0  0  0  0  0  0  0  0
  -39.3390   53.5304   68.5337 C   0  0  0  0  0  0  0  0  0  0  0  0
  -33.4262   65.4161   62.1957 O   0  0  0  0  0  0  0  0  0  0  0  0
  -39.5753   52.8186   67.1808 C   0  0  0  0  0  0  0  0  0  0  0  0
  -38.2758   52.5372   66.3958 C   0  0  0  0  0  0  0  0  0  0  0  0
  -38.5066   51.8470   65.0461 C   0  0  0  0  0  0  0  0  0  0  0  0
  -32.8125   65.5484   69.2201 O   0  5  0  0  0  0  0  0  0  0  0  0
  -39.3587   52.6139   64.0369 C   0  0  0  0  0  0  0  0  0  0  0  0
  -34.6660   63.9871   69.1841 O   0  0  0  0  0  0  0  0  0  0  0  0
  -39.5736   51.8686   62.7049 C   0  0  0  0  0  0  0  0  0  0  0  0
  -40.4131   52.6213   61.6615 C   0  0  0  0  0  0  0  0  0  0  0  0
  -39.7499   53.9462   61.2741 C   0  0  0  0  0  0  0  0  0  0  0  0
  -40.4887   54.7993   60.2583 C   0  0  0  0  0  0  0  0  0  0  0  0
  -40.4039   59.4449   62.5432 C   0  0  0  0  0  0  0  0  0  0  0  0
  -41.6634   59.3275   61.7372 C   0  0  0  0  0  0  0  0  0  0  0  0
  -41.3476   58.3867   60.5744 C   0  0  0  0  0  0  0  0  0  0  0  0
  -42.5788   58.2234   59.6864 C   0  0  0  0  0  0  0  0  0  0  0  0
  -42.4233   57.3044   58.4991 C   0  0  0  0  0  0  0  0  0  0  0  0
  -43.7488   57.2977   57.7448 C   0  0  0  0  0  0  0  0  0  0  0  0
  -44.9213   56.8179   58.6107 C   0  0  0  0  0  0  0  0  0  0  0  0
  -44.7527   55.3934   59.1701 C   0  0  0  0  0  0  0  0  0  0  0  0
  -45.9574   54.9363   60.0218 C   0  0  0  0  0  0  0  0  0  0  0  0
  -45.7290   53.5231   60.5656 C   0  0  0  0  0  0  0  0  0  0  0  0
  -44.5123   53.3689   61.4700 C   0  0  0  0  0  0  0  0  0  0  0  0
  -44.6012   54.2438   62.7116 C   0  0  0  0  0  0  0  0  0  0  0  0
  -45.7869   53.9723   63.6404 C   0  0  0  0  0  0  0  0  0  0  0  0
  -45.7126   54.9504   64.8051 C   0  0  0  0  0  0  0  0  0  0  0  0
  -44.4748   54.9383   65.6898 C   0  0  0  0  0  0  0  0  0  0  0  0
  -44.2764   53.5594   66.3388 C   0  0  0  0  0  0  0  0  0  0  0  0
  -45.4505   53.0930   67.2191 C   0  0  0  0  0  0  0  0  0  0  0  0
  -45.7514   54.0418   68.3770 C   0  0  0  0  0  0  0  0  0  0  0  0
  -36.6675   63.2597   65.0462 C   0  0  2  0  0  0  0  0  0  0  0  0
  -35.6170   63.5011   66.1397 C   0  0  1  0  0  0  0  0  0  0  0  0
  -34.8113   64.8049   65.9489 C   0  0  2  0  0  0  0  0  0  0  0  0
  -34.0971   64.6690   64.6325 C   0  0  2  0  0  0  0  0  0  0  0  0
  -35.0980   64.3555   63.5351 C   0  0  1  0  0  0  0  0  0  0  0  0
  -34.1843   64.2500   62.3160 C   0  0  0  0  0  0  0  0  0  0  0  0
  -34.1068   65.2212   68.5628 S   0  0  0  0  0  0  0  0  0  0  0  0
  -41.3672   60.6509   63.7832 H   0  0  0  0  0  0  0  0  0  0  0  0
  -38.1357   61.6183   63.3320 H   0  0  0  0  0  0  0  0  0  0  0  0
  -39.2690   62.6030   64.3261 H   0  0  0  0  0  0  0  0  0  0  0  0
  -38.6677   59.8099   64.6092 H   0  0  0  0  0  0  0  0  0  0  0  0
  -38.8837   61.7234   66.7113 H   0  0  0  0  0  0  0  0  0  0  0  0
  -41.0317   61.2430   65.9299 H   0  0  0  0  0  0  0  0  0  0  0  0
  -41.1313   58.6032   65.3087 H   0  0  0  0  0  0  0  0  0  0  0  0
  -40.8092   59.1816   68.1968 H   0  0  0  0  0  0  0  0  0  0  0  0
  -36.8391   62.7839   67.4733 H   0  0  0  0  0  0  0  0  0  0  0  0
  -41.9116   56.8838   66.5175 H   0  0  0  0  0  0  0  0  0  0  0  0
  -42.5922   57.3849   68.0840 H   0  0  0  0  0  0  0  0  0  0  0  0
  -41.3547   55.3188   68.2804 H   0  0  0  0  0  0  0  0  0  0  0  0
  -40.6146   56.6760   69.1899 H   0  0  0  0  0  0  0  0  0  0  0  0
  -34.7195   67.1532   68.3990 H   0  0  0  0  0  0  0  0  0  0  0  0
  -38.8882   56.8791   67.5557 H   0  0  0  0  0  0  0  0  0  0  0  0
  -39.6028   55.5876   66.6029 H   0  0  0  0  0  0  0  0  0  0  0  0
  -32.4632   63.8819   65.4108 H   0  0  0  0  0  0  0  0  0  0  0  0
  -38.5209   55.3068   69.3977 H   0  0  0  0  0  0  0  0  0  0  0  0
  -37.7459   54.7551   67.8806 H   0  0  0  0  0  0  0  0  0  0  0  0
  -40.2860   53.6609   69.0143 H   0  0  0  0  0  0  0  0  0  0  0  0
  -38.6715   52.9106   69.0951 H   0  0  0  0  0  0  0  0  0  0  0  0
  -32.8469   65.3466   61.4208 H   0  0  0  0  0  0  0  0  0  0  0  0
  -40.2071   53.4376   66.5786 H   0  0  0  0  0  0  0  0  0  0  0  0
  -40.0222   51.8711   67.3983 H   0  0  0  0  0  0  0  0  0  0  0  0
  -37.6497   51.9085   66.9937 H   0  0  0  0  0  0  0  0  0  0  0  0
  -37.8249   53.4852   66.1885 H   0  0  0  0  0  0  0  0  0  0  0  0
  -38.9880   50.9105   65.2358 H   0  0  0  0  0  0  0  0  0  0  0  0
  -37.5387   51.7602   64.5982 H   0  0  0  0  0  0  0  0  0  0  0  0
  -38.8757   53.5454   63.8274 H   0  0  0  0  0  0  0  0  0  0  0  0
  -40.3242   52.7415   64.4800 H   0  0  0  0  0  0  0  0  0  0  0  0
  -35.5105   63.7664   68.7611 H   0  0  0  0  0  0  0  0  0  0  0  0
  -40.0649   50.9426   62.9193 H   0  0  0  0  0  0  0  0  0  0  0  0
  -38.6023   51.7474   62.2727 H   0  0  0  0  0  0  0  0  0  0  0  0
  -41.3815   52.8213   62.0701 H   0  0  0  0  0  0  0  0  0  0  0  0
  -40.4937   52.0120   60.7856 H   0  0  0  0  0  0  0  0  0  0  0  0
  -38.7850   53.7213   60.8701 H   0  0  0  0  0  0  0  0  0  0  0  0
  -39.7298   54.5272   62.1723 H   0  0  0  0  0  0  0  0  0  0  0  0
  -40.5466   54.2753   59.3272 H   0  0  0  0  0  0  0  0  0  0  0  0
  -39.9633   55.7207   60.1169 H   0  0  0  0  0  0  0  0  0  0  0  0
  -41.4767   55.0032   60.6149 H   0  0  0  0  0  0  0  0  0  0  0  0
  -41.9563   60.2877   61.3669 H   0  0  0  0  0  0  0  0  0  0  0  0
  -42.4698   58.9515   62.3315 H   0  0  0  0  0  0  0  0  0  0  0  0
  -41.0593   57.4310   60.9598 H   0  0  0  0  0  0  0  0  0  0  0  0
  -40.5486   58.7999   59.9949 H   0  0  0  0  0  0  0  0  0  0  0  0
  -42.8468   59.1915   59.3177 H   0  0  0  0  0  0  0  0  0  0  0  0
  -43.3226   57.7687   60.3067 H   0  0  0  0  0  0  0  0  0  0  0  0
  -42.1877   56.3151   58.8318 H   0  0  0  0  0  0  0  0  0  0  0  0
  -41.6310   57.6417   57.8639 H   0  0  0  0  0  0  0  0  0  0  0  0
  -43.6585   56.6470   56.9001 H   0  0  0  0  0  0  0  0  0  0  0  0
  -43.9569   58.3046   57.4487 H   0  0  0  0  0  0  0  0  0  0  0  0
  -45.8098   56.8412   58.0149 H   0  0  0  0  0  0  0  0  0  0  0  0
  -44.9695   57.4751   59.4537 H   0  0  0  0  0  0  0  0  0  0  0  0
  -43.8740   55.3678   59.7800 H   0  0  0  0  0  0  0  0  0  0  0  0
  -44.6777   54.7274   58.3360 H   0  0  0  0  0  0  0  0  0  0  0  0
  -46.8388   54.9412   59.4151 H   0  0  0  0  0  0  0  0  0  0  0  0
  -46.0713   55.6085   60.8463 H   0  0  0  0  0  0  0  0  0  0  0  0
  -45.6090   52.8624   59.7326 H   0  0  0  0  0  0  0  0  0  0  0  0
  -46.5815   53.2945   61.1705 H   0  0  0  0  0  0  0  0  0  0  0  0
  -43.6369   53.6419   60.9186 H   0  0  0  0  0  0  0  0  0  0  0  0
  -44.4698   52.3489   61.7906 H   0  0  0  0  0  0  0  0  0  0  0  0
  -44.6637   55.2626   62.3904 H   0  0  0  0  0  0  0  0  0  0  0  0
  -43.7273   54.0186   63.2863 H   0  0  0  0  0  0  0  0  0  0  0  0
  -45.7374   52.9683   64.0069 H   0  0  0  0  0  0  0  0  0  0  0  0
  -46.7079   54.0979   63.1104 H   0  0  0  0  0  0  0  0  0  0  0  0
  -46.5535   54.7529   65.4366 H   0  0  0  0  0  0  0  0  0  0  0  0
  -45.6884   55.9120   64.3364 H   0  0  0  0  0  0  0  0  0  0  0  0
  -44.5867   55.6742   66.4585 H   0  0  0  0  0  0  0  0  0  0  0  0
  -43.6202   55.1566   65.0841 H   0  0  0  0  0  0  0  0  0  0  0  0
  -43.3976   53.6001   66.9480 H   0  0  0  0  0  0  0  0  0  0  0  0
  -44.1979   52.8544   65.5377 H   0  0  0  0  0  0  0  0  0  0  0  0
  -45.2119   52.1308   67.6217 H   0  0  0  0  0  0  0  0  0  0  0  0
  -46.3211   53.0653   66.5976 H   0  0  0  0  0  0  0  0  0  0  0  0
  -44.9007   54.0963   69.0237 H   0  0  0  0  0  0  0  0  0  0  0  0
  -46.5944   53.6779   68.9264 H   0  0  0  0  0  0  0  0  0  0  0  0
  -45.9700   55.0160   67.9922 H   0  0  0  0  0  0  0  0  0  0  0  0
  -37.3714   64.0651   65.0741 H   0  0  0  0  0  0  0  0  0  0  0  0
  -34.9062   62.7017   66.1156 H   0  0  0  0  0  0  0  0  0  0  0  0
  -35.5159   65.6067   66.0228 H   0  0  0  0  0  0  0  0  0  0  0  0
  -33.6145   65.5961   64.4038 H   0  0  0  0  0  0  0  0  0  0  0  0
  -35.8616   65.0958   63.4182 H   0  0  0  0  0  0  0  0  0  0  0  0
  -33.5307   63.4109   62.4325 H   0  0  0  0  0  0  0  0  0  0  0  0
  -34.7797   64.1214   61.4363 H   0  0  0  0  0  0  0  0  0  0  0  0
  1  4  1  0  0  0  0
  1 31  1  0  0  0  0
  1 56  1  0  0  0  0
  2  3  1  0  0  0  0
  2  4  1  0  0  0  0
  2 57  1  0  0  0  0
  2 58  1  0  0  0  0
  3 49  1  0  0  0  0
  4  6  1  0  0  0  0
  4 59  1  1  0  0  0
  5  6  1  0  0  0  0
  5 60  1  0  0  0  0
  6  8  1  0  0  0  0
  6 61  1  6  0  0  0
  7 31  2  0  0  0  0
  8  9  2  0  0  0  0
  8 62  1  0  0  0  0
  9 11  1  0  0  0  0
  9 63  1  0  0  0  0
 10 50  1  0  0  0  0
 10 64  1  0  0  0  0
 11 13  1  0  0  0  0
 11 65  1  0  0  0  0
 11 66  1  0  0  0  0
 12 51  1  0  0  0  0
 12 55  1  0  0  0  0
 13 15  1  0  0  0  0
 13 67  1  0  0  0  0
 13 68  1  0  0  0  0
 14 55  1  0  0  0  0
 14 69  1  0  0  0  0
 15 17  1  0  0  0  0
 15 70  1  0  0  0  0
 15 71  1  0  0  0  0
 16 52  1  0  0  0  0
 16 72  1  0  0  0  0
 17 19  1  0  0  0  0
 17 73  1  0  0  0  0
 17 74  1  0  0  0  0
 18 49  1  0  0  0  0
 18 53  1  0  0  0  0
 19 21  1  0  0  0  0
 19 75  1  0  0  0  0
 19 76  1  0  0  0  0
 20 54  1  0  0  0  0
 20 77  1  0  0  0  0
 21 22  1  0  0  0  0
 21 78  1  0  0  0  0
 21 79  1  0  0  0  0
 22 23  1  0  0  0  0
 22 80  1  0  0  0  0
 22 81  1  0  0  0  0
 23 25  1  0  0  0  0
 23 82  1  0  0  0  0
 23 83  1  0  0  0  0
 24 55  1  0  0  0  0
 25 27  1  0  0  0  0
 25 84  1  0  0  0  0
 25 85  1  0  0  0  0
 26 55  1  0  0  0  0
 26 86  1  0  0  0  0
 27 28  1  0  0  0  0
 27 87  1  0  0  0  0
 27 88  1  0  0  0  0
 28 29  1  0  0  0  0
 28 89  1  0  0  0  0
 28 90  1  0  0  0  0
 29 30  1  0  0  0  0
 29 91  1  0  0  0  0
 29 92  1  0  0  0  0
 30 93  1  0  0  0  0
 30 94  1  0  0  0  0
 30 95  1  0  0  0  0
 31 32  1  0  0  0  0
 32 33  1  0  0  0  0
 32 96  1  0  0  0  0
 32 97  1  0  0  0  0
 33 34  1  0  0  0  0
 33 98  1  0  0  0  0
 33 99  1  0  0  0  0
 34 35  1  0  0  0  0
 34100  1  0  0  0  0
 34101  1  0  0  0  0
 35 36  1  0  0  0  0
 35102  1  0  0  0  0
 35103  1  0  0  0  0
 36 37  1  0  0  0  0
 36104  1  0  0  0  0
 36105  1  0  0  0  0
 37 38  1  0  0  0  0
 37106  1  0  0  0  0
 37107  1  0  0  0  0
 38 39  1  0  0  0  0
 38108  1  0  0  0  0
 38109  1  0  0  0  0
 39 40  1  0  0  0  0
 39110  1  0  0  0  0
 39111  1  0  0  0  0
 40 41  1  0  0  0  0
 40112  1  0  0  0  0
 40113  1  0  0  0  0
 41 42  1  0  0  0  0
 41114  1  0  0  0  0
 41115  1  0  0  0  0
 42 43  1  0  0  0  0
 42116  1  0  0  0  0
 42117  1  0  0  0  0
 43 44  1  0  0  0  0
 43118  1  0  0  0  0
 43119  1  0  0  0  0
 44 45  1  0  0  0  0
 44120  1  0  0  0  0
 44121  1  0  0  0  0
 45 46  1  0  0  0  0
 45122  1  0  0  0  0
 45123  1  0  0  0  0
 46 47  1  0  0  0  0
 46124  1  0  0  0  0
 46125  1  0  0  0  0
 47 48  1  0  0  0  0
 47126  1  0  0  0  0
 47127  1  0  0  0  0
 48128  1  0  0  0  0
 48129  1  0  0  0  0
 48130  1  0  0  0  0
 49 50  1  0  0  0  0
 49131  1  6  0  0  0
 50 51  1  0  0  0  0
 50132  1  1  0  0  0
 51 52  1  0  0  0  0
 51133  1  6  0  0  0
 52 53  1  0  0  0  0
 52134  1  6  0  0  0
 53 54  1  0  0  0  0
 53135  1  6  0  0  0
 54136  1  0  0  0  0
 54137  1  0  0  0  0
M  CHG  1  24  -1
M  END
$$$$