/media/chris/experiments/cd1a-new-docking/inputs/ligands/1onq_ligand.pdb
 OpenBabel06222310383D

137137  0  0  1  0  0  0  0  0999 V2000
  -40.4920   60.2280   63.6270 N   0  0  0  0  0  0  0  0  0  0  0  0
  -38.5950   61.7730   64.2860 C   0  0  0  0  0  0  0  0  0  0  0  0
  -37.8612   61.7550   63.0352 O   0  0  0  0  0  0  0  0  0  0  0  0
  -39.4590   60.5300   64.5980 C   0  0  1  0  0  0  0  0  0  0  0  0
  -39.2569   60.8461   66.8904 O   0  0  0  0  0  0  0  0  0  0  0  0
  -40.2280   60.5370   65.9080 C   0  0  2  0  0  0  0  0  0  0  0  0
  -41.4675   58.3885   64.5282 O   0  0  0  0  0  0  0  0  0  0  0  0
  -40.8583   59.1606   66.1332 C   0  0  0  0  0  0  0  0  0  0  0  0
  -40.2351   58.1694   66.7929 C   0  0  0  0  0  0  0  0  0  0  0  0
  -40.4867   62.7491   62.4913 O   0  0  0  0  0  0  0  0  0  0  0  0
  -40.9315   56.8221   66.9754 C   0  0  0  0  0  0  0  0  0  0  0  0
  -41.3164   63.5659   59.7683 O   0  0  0  0  0  0  0  0  0  0  0  0
  -42.4629   56.9176   67.0394 C   0  0  0  0  0  0  0  0  0  0  0  0
  -41.4127   63.4310   57.1819 O   0  0  0  0  0  0  0  0  0  0  0  0
  -43.2060   55.5838   67.2399 C   0  0  0  0  0  0  0  0  0  0  0  0
  -38.7607   63.8137   58.8462 O   0  0  0  0  0  0  0  0  0  0  0  0
  -44.7372   55.8074   67.2701 C   0  0  0  0  0  0  0  0  0  0  0  0
  -37.6382   61.6364   60.6224 O   0  0  0  0  0  0  0  0  0  0  0  0
  -45.5883   54.5303   67.4849 C   0  0  0  0  0  0  0  0  0  0  0  0
  -36.3522   60.6658   58.1593 O   0  0  0  0  0  0  0  0  0  0  0  0
  -45.3831   53.4431   66.4038 C   0  0  0  0  0  0  0  0  0  0  0  0
  -43.9321   52.9218   66.3199 C   0  0  0  0  0  0  0  0  0  0  0  0
  -43.4335   52.2712   67.6158 C   0  0  0  0  0  0  0  0  0  0  0  0
  -43.0554   64.7618   58.3732 O   0  5  0  0  0  0  0  0  0  0  0  0
  -41.9976   51.7515   67.5967 C   0  0  0  0  0  0  0  0  0  0  0  0
  -43.2077   62.3429   58.3819 O   0  0  0  0  0  0  0  0  0  0  0  0
  -40.9409   52.8417   67.3305 C   0  0  0  0  0  0  0  0  0  0  0  0
  -40.8949   53.9757   68.3658 C   0  0  0  0  0  0  0  0  0  0  0  0
  -39.8273   55.0110   68.0003 C   0  0  0  0  0  0  0  0  0  0  0  0
  -39.6664   56.1807   68.9550 C   0  0  0  0  0  0  0  0  0  0  0  0
  -41.3839   59.2282   63.6532 C   0  0  0  0  0  0  0  0  0  0  0  0
  -42.3351   59.1918   62.4940 C   0  0  0  0  0  0  0  0  0  0  0  0
  -43.6356   58.5840   63.0197 C   0  0  0  0  0  0  0  0  0  0  0  0
  -44.6616   58.4928   61.8927 C   0  0  0  0  0  0  0  0  0  0  0  0
  -46.0090   57.9243   62.2666 C   0  0  0  0  0  0  0  0  0  0  0  0
  -46.8671   57.9055   61.0059 C   0  0  0  0  0  0  0  0  0  0  0  0
  -47.0542   59.3007   60.3950 C   0  0  0  0  0  0  0  0  0  0  0  0
  -47.9301   59.3242   59.1290 C   0  0  0  0  0  0  0  0  0  0  0  0
  -47.3657   58.4444   57.9919 C   0  0  0  0  0  0  0  0  0  0  0  0
  -47.2779   56.9810   58.4343 C   0  0  0  0  0  0  0  0  0  0  0  0
  -46.7159   56.0241   57.3900 C   0  0  0  0  0  0  0  0  0  0  0  0
  -45.2946   56.3837   56.9831 C   0  0  0  0  0  0  0  0  0  0  0  0
  -44.2504   56.3622   58.1018 C   0  0  0  0  0  0  0  0  0  0  0  0
  -42.9073   56.7630   57.5066 C   0  0  0  0  0  0  0  0  0  0  0  0
  -42.7729   58.1385   56.8702 C   0  0  0  0  0  0  0  0  0  0  0  0
  -43.0493   59.2486   57.8965 C   0  0  0  0  0  0  0  0  0  0  0  0
  -42.0910   59.2571   59.1017 C   0  0  0  0  0  0  0  0  0  0  0  0
  -40.6299   59.4654   58.7101 C   0  0  0  0  0  0  0  0  0  0  0  0
  -38.5606   61.6540   61.7388 C   0  0  2  0  0  0  0  0  0  0  0  0
  -39.5794   62.7613   61.4326 C   0  0  1  0  0  0  0  0  0  0  0  0
  -40.3623   62.5383   60.1202 C   0  0  2  0  0  0  0  0  0  0  0  0
  -39.3395   62.5224   59.0179 C   0  0  2  0  0  0  0  0  0  0  0  0
  -38.2716   61.4876   59.3230 C   0  0  1  0  0  0  0  0  0  0  0  0
  -37.3507   61.6405   58.1144 C   0  0  0  0  0  0  0  0  0  0  0  0
  -42.2679   63.4995   58.4036 S   0  0  0  0  0  0  0  0  0  0  0  0
  -40.5449   60.8326   62.8518 H   0  0  0  0  0  0  0  0  0  0  0  0
  -39.2437   62.6238   64.2698 H   0  0  0  0  0  0  0  0  0  0  0  0
  -37.8479   61.7974   65.0516 H   0  0  0  0  0  0  0  0  0  0  0  0
  -38.6677   59.8099   64.6092 H   0  0  0  0  0  0  0  0  0  0  0  0
  -38.8837   61.7234   66.7113 H   0  0  0  0  0  0  0  0  0  0  0  0
  -41.0317   61.2430   65.9299 H   0  0  0  0  0  0  0  0  0  0  0  0
  -41.8050   58.9857   65.7614 H   0  0  0  0  0  0  0  0  0  0  0  0
  -39.2882   58.3181   67.1754 H   0  0  0  0  0  0  0  0  0  0  0  0
  -40.0119   62.8880   63.3257 H   0  0  0  0  0  0  0  0  0  0  0  0
  -40.5829   56.3832   67.8869 H   0  0  0  0  0  0  0  0  0  0  0  0
  -40.6926   56.2299   66.1169 H   0  0  0  0  0  0  0  0  0  0  0  0
  -42.8042   57.3496   66.1220 H   0  0  0  0  0  0  0  0  0  0  0  0
  -42.6830   57.5076   67.9045 H   0  0  0  0  0  0  0  0  0  0  0  0
  -40.7932   64.1774   57.1785 H   0  0  0  0  0  0  0  0  0  0  0  0
  -42.8970   55.1458   68.1659 H   0  0  0  0  0  0  0  0  0  0  0  0
  -42.9703   54.9336   66.4235 H   0  0  0  0  0  0  0  0  0  0  0  0
  -39.4595   64.4581   58.6526 H   0  0  0  0  0  0  0  0  0  0  0  0
  -45.0261   56.2442   66.3371 H   0  0  0  0  0  0  0  0  0  0  0  0
  -44.9280   56.4359   68.1148 H   0  0  0  0  0  0  0  0  0  0  0  0
  -46.6207   54.8113   67.4867 H   0  0  0  0  0  0  0  0  0  0  0  0
  -45.2736   54.1034   68.4142 H   0  0  0  0  0  0  0  0  0  0  0  0
  -35.7688   60.7650   57.3907 H   0  0  0  0  0  0  0  0  0  0  0  0
  -45.6497   53.8563   65.4535 H   0  0  0  0  0  0  0  0  0  0  0  0
  -46.0004   52.6117   66.6734 H   0  0  0  0  0  0  0  0  0  0  0  0
  -43.2904   53.7457   66.0872 H   0  0  0  0  0  0  0  0  0  0  0  0
  -43.9158   52.1645   65.5641 H   0  0  0  0  0  0  0  0  0  0  0  0
  -44.0773   51.4453   67.8358 H   0  0  0  0  0  0  0  0  0  0  0  0
  -43.4487   53.0476   68.3518 H   0  0  0  0  0  0  0  0  0  0  0  0
  -41.9178   51.0106   66.8288 H   0  0  0  0  0  0  0  0  0  0  0  0
  -41.7976   51.3572   68.5711 H   0  0  0  0  0  0  0  0  0  0  0  0
  -42.7023   61.5152   58.4015 H   0  0  0  0  0  0  0  0  0  0  0  0
  -41.1463   53.2751   66.3740 H   0  0  0  0  0  0  0  0  0  0  0  0
  -39.9905   52.3529   67.3835 H   0  0  0  0  0  0  0  0  0  0  0  0
  -40.6675   53.5631   69.3265 H   0  0  0  0  0  0  0  0  0  0  0  0
  -41.8484   54.4609   68.3818 H   0  0  0  0  0  0  0  0  0  0  0  0
  -40.0748   55.4078   67.0379 H   0  0  0  0  0  0  0  0  0  0  0  0
  -38.8966   54.4844   68.0366 H   0  0  0  0  0  0  0  0  0  0  0  0
  -40.5683   56.7563   68.9690 H   0  0  0  0  0  0  0  0  0  0  0  0
  -38.8548   56.7975   68.6297 H   0  0  0  0  0  0  0  0  0  0  0  0
  -39.4628   55.8128   69.9388 H   0  0  0  0  0  0  0  0  0  0  0  0
  -41.9358   58.5868   61.7069 H   0  0  0  0  0  0  0  0  0  0  0  0
  -42.4985   60.1716   62.0963 H   0  0  0  0  0  0  0  0  0  0  0  0
  -44.0238   59.2007   63.8032 H   0  0  0  0  0  0  0  0  0  0  0  0
  -43.4379   57.6019   63.3954 H   0  0  0  0  0  0  0  0  0  0  0  0
  -44.2481   57.8748   61.1232 H   0  0  0  0  0  0  0  0  0  0  0  0
  -44.8487   59.5023   61.5915 H   0  0  0  0  0  0  0  0  0  0  0  0
  -46.4697   58.5379   63.0124 H   0  0  0  0  0  0  0  0  0  0  0  0
  -45.9031   56.9366   62.6640 H   0  0  0  0  0  0  0  0  0  0  0  0
  -47.8295   57.5083   61.2530 H   0  0  0  0  0  0  0  0  0  0  0  0
  -46.3631   57.3006   60.2813 H   0  0  0  0  0  0  0  0  0  0  0  0
  -46.0893   59.6883   60.1425 H   0  0  0  0  0  0  0  0  0  0  0  0
  -47.5600   59.8921   61.1294 H   0  0  0  0  0  0  0  0  0  0  0  0
  -47.9973   60.3331   58.7789 H   0  0  0  0  0  0  0  0  0  0  0  0
  -48.8890   58.9304   59.3943 H   0  0  0  0  0  0  0  0  0  0  0  0
  -46.3880   58.7920   57.7309 H   0  0  0  0  0  0  0  0  0  0  0  0
  -48.0201   58.5106   57.1480 H   0  0  0  0  0  0  0  0  0  0  0  0
  -48.2636   56.6519   58.6895 H   0  0  0  0  0  0  0  0  0  0  0  0
  -46.5954   56.9585   59.2580 H   0  0  0  0  0  0  0  0  0  0  0  0
  -47.3409   56.0562   56.5221 H   0  0  0  0  0  0  0  0  0  0  0  0
  -46.6953   55.0448   57.8206 H   0  0  0  0  0  0  0  0  0  0  0  0
  -45.3120   57.3709   56.5705 H   0  0  0  0  0  0  0  0  0  0  0  0
  -44.9920   55.6254   56.2915 H   0  0  0  0  0  0  0  0  0  0  0  0
  -44.1838   55.3780   58.5162 H   0  0  0  0  0  0  0  0  0  0  0  0
  -44.5279   57.0427   58.8795 H   0  0  0  0  0  0  0  0  0  0  0  0
  -42.6689   56.0422   56.7527 H   0  0  0  0  0  0  0  0  0  0  0  0
  -42.2497   56.8008   58.3499 H   0  0  0  0  0  0  0  0  0  0  0  0
  -43.4742   58.2224   56.0664 H   0  0  0  0  0  0  0  0  0  0  0  0
  -41.7725   58.2504   56.5075 H   0  0  0  0  0  0  0  0  0  0  0  0
  -44.0466   59.1237   58.2635 H   0  0  0  0  0  0  0  0  0  0  0  0
  -42.9046   60.1778   57.3861 H   0  0  0  0  0  0  0  0  0  0  0  0
  -42.1760   58.3193   59.6099 H   0  0  0  0  0  0  0  0  0  0  0  0
  -42.3725   60.0803   59.7247 H   0  0  0  0  0  0  0  0  0  0  0  0
  -40.3100   58.6588   58.0839 H   0  0  0  0  0  0  0  0  0  0  0  0
  -40.0248   59.4938   59.5921 H   0  0  0  0  0  0  0  0  0  0  0  0
  -40.5310   60.3894   58.1798 H   0  0  0  0  0  0  0  0  0  0  0  0
  -39.0913   60.7313   61.8483 H   0  0  0  0  0  0  0  0  0  0  0  0
  -39.0559   63.6873   61.3173 H   0  0  0  0  0  0  0  0  0  0  0  0
  -40.9244   61.6378   60.2552 H   0  0  0  0  0  0  0  0  0  0  0  0
  -39.8234   62.2578   58.1011 H   0  0  0  0  0  0  0  0  0  0  0  0
  -38.6490   60.4925   59.4336 H   0  0  0  0  0  0  0  0  0  0  0  0
  -37.9204   61.5253   57.2160 H   0  0  0  0  0  0  0  0  0  0  0  0
  -36.9005   62.6110   58.1315 H   0  0  0  0  0  0  0  0  0  0  0  0
  1  4  1  0  0  0  0
  1 31  1  0  0  0  0
  1 56  1  0  0  0  0
  2  3  1  0  0  0  0
  2  4  1  0  0  0  0
  2 57  1  0  0  0  0
  2 58  1  0  0  0  0
  3 49  1  0  0  0  0
  4  6  1  0  0  0  0
  4 59  1  1  0  0  0
  5  6  1  0  0  0  0
  5 60  1  0  0  0  0
  6  8  1  0  0  0  0
  6 61  1  6  0  0  0
  7 31  2  0  0  0  0
  8  9  2  0  0  0  0
  8 62  1  0  0  0  0
  9 11  1  0  0  0  0
  9 63  1  0  0  0  0
 10 50  1  0  0  0  0
 10 64  1  0  0  0  0
 11 13  1  0  0  0  0
 11 65  1  0  0  0  0
 11 66  1  0  0  0  0
 12 51  1  0  0  0  0
 12 55  1  0  0  0  0
 13 15  1  0  0  0  0
 13 67  1  0  0  0  0
 13 68  1  0  0  0  0
 14 55  1  0  0  0  0
 14 69  1  0  0  0  0
 15 17  1  0  0  0  0
 15 70  1  0  0  0  0
 15 71  1  0  0  0  0
 16 52  1  0  0  0  0
 16 72  1  0  0  0  0
 17 19  1  0  0  0  0
 17 73  1  0  0  0  0
 17 74  1  0  0  0  0
 18 49  1  0  0  0  0
 18 53  1  0  0  0  0
 19 21  1  0  0  0  0
 19 75  1  0  0  0  0
 19 76  1  0  0  0  0
 20 54  1  0  0  0  0
 20 77  1  0  0  0  0
 21 22  1  0  0  0  0
 21 78  1  0  0  0  0
 21 79  1  0  0  0  0
 22 23  1  0  0  0  0
 22 80  1  0  0  0  0
 22 81  1  0  0  0  0
 23 25  1  0  0  0  0
 23 82  1  0  0  0  0
 23 83  1  0  0  0  0
 24 55  1  0  0  0  0
 25 27  1  0  0  0  0
 25 84  1  0  0  0  0
 25 85  1  0  0  0  0
 26 55  1  0  0  0  0
 26 86  1  0  0  0  0
 27 28  1  0  0  0  0
 27 87  1  0  0  0  0
 27 88  1  0  0  0  0
 28 29  1  0  0  0  0
 28 89  1  0  0  0  0
 28 90  1  0  0  0  0
 29 30  1  0  0  0  0
 29 91  1  0  0  0  0
 29 92  1  0  0  0  0
 30 93  1  0  0  0  0
 30 94  1  0  0  0  0
 30 95  1  0  0  0  0
 31 32  1  0  0  0  0
 32 33  1  0  0  0  0
 32 96  1  0  0  0  0
 32 97  1  0  0  0  0
 33 34  1  0  0  0  0
 33 98  1  0  0  0  0
 33 99  1  0  0  0  0
 34 35  1  0  0  0  0
 34100  1  0  0  0  0
 34101  1  0  0  0  0
 35 36  1  0  0  0  0
 35102  1  0  0  0  0
 35103  1  0  0  0  0
 36 37  1  0  0  0  0
 36104  1  0  0  0  0
 36105  1  0  0  0  0
 37 38  1  0  0  0  0
 37106  1  0  0  0  0
 37107  1  0  0  0  0
 38 39  1  0  0  0  0
 38108  1  0  0  0  0
 38109  1  0  0  0  0
 39 40  1  0  0  0  0
 39110  1  0  0  0  0
 39111  1  0  0  0  0
 40 41  1  0  0  0  0
 40112  1  0  0  0  0
 40113  1  0  0  0  0
 41 42  1  0  0  0  0
 41114  1  0  0  0  0
 41115  1  0  0  0  0
 42 43  1  0  0  0  0
 42116  1  0  0  0  0
 42117  1  0  0  0  0
 43 44  1  0  0  0  0
 43118  1  0  0  0  0
 43119  1  0  0  0  0
 44 45  1  0  0  0  0
 44120  1  0  0  0  0
 44121  1  0  0  0  0
 45 46  1  0  0  0  0
 45122  1  0  0  0  0
 45123  1  0  0  0  0
 46 47  1  0  0  0  0
 46124  1  0  0  0  0
 46125  1  0  0  0  0
 47 48  1  0  0  0  0
 47126  1  0  0  0  0
 47127  1  0  0  0  0
 48128  1  0  0  0  0
 48129  1  0  0  0  0
 48130  1  0  0  0  0
 49 50  1  0  0  0  0
 49131  1  6  0  0  0
 50 51  1  0  0  0  0
 50132  1  6  0  0  0
 51 52  1  0  0  0  0
 51133  1  1  0  0  0
 52 53  1  0  0  0  0
 52134  1  6  0  0  0
 53 54  1  0  0  0  0
 53135  1  6  0  0  0
 54136  1  0  0  0  0
 54137  1  0  0  0  0
M  CHG  1  24  -1
M  END
$$$$