/media/chris/experiments/cd1a-new-docking/inputs/ligands/1onq_ligand.pdb
 OpenBabel06222310383D

137137  0  0  1  0  0  0  0  0999 V2000
  -40.4920   60.2280   63.6270 N   0  0  0  0  0  0  0  0  0  0  0  0
  -38.5950   61.7730   64.2860 C   0  0  0  0  0  0  0  0  0  0  0  0
  -37.8612   61.7550   63.0352 O   0  0  0  0  0  0  0  0  0  0  0  0
  -39.4590   60.5300   64.5980 C   0  0  1  0  0  0  0  0  0  0  0  0
  -41.2116   61.5409   65.7392 O   0  0  0  0  0  0  0  0  0  0  0  0
  -40.2280   60.5370   65.9080 C   0  0  2  0  0  0  0  0  0  0  0  0
  -40.9980   62.2858   62.8166 O   0  0  0  0  0  0  0  0  0  0  0  0
  -39.2689   60.8567   67.0571 C   0  0  0  0  0  0  0  0  0  0  0  0
  -39.0539   60.0187   68.0855 C   0  0  0  0  0  0  0  0  0  0  0  0
  -36.4617   63.4735   64.8422 O   0  0  0  0  0  0  0  0  0  0  0  0
  -38.0807   60.4114   69.1956 C   0  0  0  0  0  0  0  0  0  0  0  0
  -33.9514   64.8423   64.0706 O   0  0  0  0  0  0  0  0  0  0  0  0
  -37.3725   59.2176   69.8525 C   0  0  0  0  0  0  0  0  0  0  0  0
  -31.9283   66.2529   64.8673 O   0  0  0  0  0  0  0  0  0  0  0  0
  -38.2951   58.1745   70.5097 C   0  0  0  0  0  0  0  0  0  0  0  0
  -33.4515   63.1747   61.9701 O   0  0  0  0  0  0  0  0  0  0  0  0
  -39.2489   57.5484   69.4639 C   0  0  0  0  0  0  0  0  0  0  0  0
  -36.3692   62.6641   61.3521 O   0  0  0  0  0  0  0  0  0  0  0  0
  -40.2385   56.4929   70.0190 C   0  0  0  0  0  0  0  0  0  0  0  0
  -33.8767   62.4184   59.8301 O   0  0  0  0  0  0  0  0  0  0  0  0
  -41.2043   57.0362   71.0983 C   0  0  0  0  0  0  0  0  0  0  0  0
  -42.1123   58.1793   70.5955 C   0  0  0  0  0  0  0  0  0  0  0  0
  -43.0266   57.7760   69.4325 C   0  0  0  0  0  0  0  0  0  0  0  0
  -33.8632   67.3659   63.9151 O   0  5  0  0  0  0  0  0  0  0  0  0
  -44.0178   56.6496   69.7172 C   0  0  0  0  0  0  0  0  0  0  0  0
  -32.3123   66.1772   62.4813 O   0  0  0  0  0  0  0  0  0  0  0  0
  -44.8999   56.2722   68.5108 C   0  0  0  0  0  0  0  0  0  0  0  0
  -45.9198   55.1531   68.7699 C   0  0  0  0  0  0  0  0  0  0  0  0
  -45.2208   53.8624   69.2066 C   0  0  0  0  0  0  0  0  0  0  0  0
  -46.1177   52.6680   69.4797 C   0  0  0  0  0  0  0  0  0  0  0  0
  -41.1606   61.0813   62.8393 C   0  0  0  0  0  0  0  0  0  0  0  0
  -42.1710   60.4499   61.9282 C   0  0  0  0  0  0  0  0  0  0  0  0
  -42.7946   61.5868   61.1184 C   0  0  0  0  0  0  0  0  0  0  0  0
  -41.7183   62.2950   60.2992 C   0  0  0  0  0  0  0  0  0  0  0  0
  -42.1837   63.4575   59.4563 C   0  0  0  0  0  0  0  0  0  0  0  0
  -40.9686   64.0041   58.7141 C   0  0  0  0  0  0  0  0  0  0  0  0
  -39.8570   64.4744   59.6618 C   0  0  0  0  0  0  0  0  0  0  0  0
  -40.2856   65.5868   60.6362 C   0  0  0  0  0  0  0  0  0  0  0  0
  -39.1391   66.0480   61.5627 C   0  0  0  0  0  0  0  0  0  0  0  0
  -39.6246   67.1401   62.5200 C   0  0  0  0  0  0  0  0  0  0  0  0
  -40.7560   66.7242   63.4524 C   0  0  0  0  0  0  0  0  0  0  0  0
  -40.3599   65.5705   64.3619 C   0  0  0  0  0  0  0  0  0  0  0  0
  -39.1834   65.8328   65.3049 C   0  0  0  0  0  0  0  0  0  0  0  0
  -38.9300   64.5671   66.1128 C   0  0  0  0  0  0  0  0  0  0  0  0
  -37.8116   64.5721   67.1444 C   0  0  0  0  0  0  0  0  0  0  0  0
  -37.7000   63.2067   67.8410 C   0  0  0  0  0  0  0  0  0  0  0  0
  -36.6009   63.1264   68.9165 C   0  0  0  0  0  0  0  0  0  0  0  0
  -35.2031   63.4156   68.3744 C   0  0  0  0  0  0  0  0  0  0  0  0
  -36.9920   62.8817   62.6414 C   0  0  2  0  0  0  0  0  0  0  0  0
  -35.8536   63.2281   63.6117 C   0  0  1  0  0  0  0  0  0  0  0  0
  -35.0540   64.4857   63.2063 C   0  0  2  0  0  0  0  0  0  0  0  0
  -34.4510   64.1853   61.8619 C   0  0  2  0  0  0  0  0  0  0  0  0
  -35.5409   63.7659   60.8921 C   0  0  1  0  0  0  0  0  0  0  0  0
  -34.7309   63.5033   59.6245 C   0  0  0  0  0  0  0  0  0  0  0  0
  -32.9820   66.1711   63.8128 S   0  0  0  0  0  0  0  0  0  0  0  0
  -40.7322   59.2777   63.5347 H   0  0  0  0  0  0  0  0  0  0  0  0
  -39.2437   62.6238   64.2698 H   0  0  0  0  0  0  0  0  0  0  0  0
  -37.8479   61.7974   65.0516 H   0  0  0  0  0  0  0  0  0  0  0  0
  -38.6677   59.8099   64.6092 H   0  0  0  0  0  0  0  0  0  0  0  0
  -41.7964   61.3001   65.0038 H   0  0  0  0  0  0  0  0  0  0  0  0
  -40.6791   59.5963   66.1457 H   0  0  0  0  0  0  0  0  0  0  0  0
  -38.7644   61.7568   67.0415 H   0  0  0  0  0  0  0  0  0  0  0  0
  -39.5451   59.1120   68.1252 H   0  0  0  0  0  0  0  0  0  0  0  0
  -36.9694   62.6928   65.1133 H   0  0  0  0  0  0  0  0  0  0  0  0
  -38.6259   60.9373   69.9513 H   0  0  0  0  0  0  0  0  0  0  0  0
  -37.3204   61.0137   68.7437 H   0  0  0  0  0  0  0  0  0  0  0  0
  -36.7167   59.5988   70.6072 H   0  0  0  0  0  0  0  0  0  0  0  0
  -36.8690   58.7044   69.0600 H   0  0  0  0  0  0  0  0  0  0  0  0
  -32.3461   66.2501   65.7427 H   0  0  0  0  0  0  0  0  0  0  0  0
  -38.8749   58.6502   71.2729 H   0  0  0  0  0  0  0  0  0  0  0  0
  -37.6906   57.3985   70.9307 H   0  0  0  0  0  0  0  0  0  0  0  0
  -32.7664   63.4629   62.5935 H   0  0  0  0  0  0  0  0  0  0  0  0
  -38.6513   57.0778   68.7113 H   0  0  0  0  0  0  0  0  0  0  0  0
  -39.8502   58.3520   69.0930 H   0  0  0  0  0  0  0  0  0  0  0  0
  -39.6711   55.6936   70.4480 H   0  0  0  0  0  0  0  0  0  0  0  0
  -40.8440   56.1758   69.1958 H   0  0  0  0  0  0  0  0  0  0  0  0
  -33.3634   62.2536   59.0236 H   0  0  0  0  0  0  0  0  0  0  0  0
  -40.6233   57.4016   71.9192 H   0  0  0  0  0  0  0  0  0  0  0  0
  -41.8452   56.2276   71.3818 H   0  0  0  0  0  0  0  0  0  0  0  0
  -41.4899   58.9870   70.2712 H   0  0  0  0  0  0  0  0  0  0  0  0
  -42.7478   58.4548   71.4111 H   0  0  0  0  0  0  0  0  0  0  0  0
  -42.4040   57.4660   68.6194 H   0  0  0  0  0  0  0  0  0  0  0  0
  -43.6240   58.6388   69.2236 H   0  0  0  0  0  0  0  0  0  0  0  0
  -44.6568   56.9579   70.5182 H   0  0  0  0  0  0  0  0  0  0  0  0
  -43.4401   55.7828   69.9621 H   0  0  0  0  0  0  0  0  0  0  0  0
  -31.7354   65.4010   62.4060 H   0  0  0  0  0  0  0  0  0  0  0  0
  -44.2565   55.9561   67.7164 H   0  0  0  0  0  0  0  0  0  0  0  0
  -45.4714   57.1459   68.2764 H   0  0  0  0  0  0  0  0  0  0  0  0
  -46.4698   54.9661   67.8713 H   0  0  0  0  0  0  0  0  0  0  0  0
  -46.5771   55.4663   69.5540 H   0  0  0  0  0  0  0  0  0  0  0  0
  -44.6779   54.0738   70.1041 H   0  0  0  0  0  0  0  0  0  0  0  0
  -44.6099   53.5752   68.3764 H   0  0  0  0  0  0  0  0  0  0  0  0
  -46.7616   52.8870   70.3058 H   0  0  0  0  0  0  0  0  0  0  0  0
  -45.5149   51.8154   69.7136 H   0  0  0  0  0  0  0  0  0  0  0  0
  -46.7086   52.4599   68.6123 H   0  0  0  0  0  0  0  0  0  0  0  0
  -42.9228   59.9482   62.5008 H   0  0  0  0  0  0  0  0  0  0  0  0
  -41.7149   59.7236   61.2883 H   0  0  0  0  0  0  0  0  0  0  0  0
  -43.2511   62.2880   61.7854 H   0  0  0  0  0  0  0  0  0  0  0  0
  -43.5318   61.1834   60.4562 H   0  0  0  0  0  0  0  0  0  0  0  0
  -41.2770   61.5725   59.6448 H   0  0  0  0  0  0  0  0  0  0  0  0
  -41.0399   62.7115   61.0143 H   0  0  0  0  0  0  0  0  0  0  0  0
  -42.6014   64.2180   60.0824 H   0  0  0  0  0  0  0  0  0  0  0  0
  -42.9365   63.1424   58.7643 H   0  0  0  0  0  0  0  0  0  0  0  0
  -41.2792   64.8331   58.1130 H   0  0  0  0  0  0  0  0  0  0  0  0
  -40.5702   63.2099   58.1180 H   0  0  0  0  0  0  0  0  0  0  0  0
  -39.0448   64.8416   59.0699 H   0  0  0  0  0  0  0  0  0  0  0  0
  -39.5860   63.6297   60.2601 H   0  0  0  0  0  0  0  0  0  0  0  0
  -41.0876   65.2198   61.2420 H   0  0  0  0  0  0  0  0  0  0  0  0
  -40.5839   66.4305   60.0496 H   0  0  0  0  0  0  0  0  0  0  0  0
  -38.3388   66.4337   60.9663 H   0  0  0  0  0  0  0  0  0  0  0  0
  -38.8026   65.2106   62.1375 H   0  0  0  0  0  0  0  0  0  0  0  0
  -39.9652   67.9678   61.9337 H   0  0  0  0  0  0  0  0  0  0  0  0
  -38.7920   67.3781   63.1485 H   0  0  0  0  0  0  0  0  0  0  0  0
  -41.5960   66.4239   62.8615 H   0  0  0  0  0  0  0  0  0  0  0  0
  -40.9943   67.5630   64.0724 H   0  0  0  0  0  0  0  0  0  0  0  0
  -40.1025   64.7378   63.7412 H   0  0  0  0  0  0  0  0  0  0  0  0
  -41.2049   65.3997   64.9956 H   0  0  0  0  0  0  0  0  0  0  0  0
  -39.4207   66.6417   65.9639 H   0  0  0  0  0  0  0  0  0  0  0  0
  -38.3107   66.0938   64.7435 H   0  0  0  0  0  0  0  0  0  0  0  0
  -38.7115   63.7861   65.4148 H   0  0  0  0  0  0  0  0  0  0  0  0
  -39.8201   64.4467   66.6942 H   0  0  0  0  0  0  0  0  0  0  0  0
  -38.0154   65.3238   67.8781 H   0  0  0  0  0  0  0  0  0  0  0  0
  -36.8877   64.7771   66.6452 H   0  0  0  0  0  0  0  0  0  0  0  0
  -37.4930   62.4673   67.0958 H   0  0  0  0  0  0  0  0  0  0  0  0
  -38.6304   63.0448   68.3441 H   0  0  0  0  0  0  0  0  0  0  0  0
  -36.6061   62.1414   69.3345 H   0  0  0  0  0  0  0  0  0  0  0  0
  -36.8184   63.8761   69.6484 H   0  0  0  0  0  0  0  0  0  0  0  0
  -34.9483   62.6839   67.6364 H   0  0  0  0  0  0  0  0  0  0  0  0
  -34.4947   63.3760   69.1753 H   0  0  0  0  0  0  0  0  0  0  0  0
  -35.1867   64.3895   67.9315 H   0  0  0  0  0  0  0  0  0  0  0  0
  -37.6838   63.6979   62.6313 H   0  0  0  0  0  0  0  0  0  0  0  0
  -35.1546   62.4180   63.6243 H   0  0  0  0  0  0  0  0  0  0  0  0
  -35.7427   65.3038   63.2423 H   0  0  0  0  0  0  0  0  0  0  0  0
  -33.9800   65.0706   61.4887 H   0  0  0  0  0  0  0  0  0  0  0  0
  -36.3046   64.5020   60.7512 H   0  0  0  0  0  0  0  0  0  0  0  0
  -35.3964   63.2841   58.8158 H   0  0  0  0  0  0  0  0  0  0  0  0
  -34.1517   64.3711   59.3871 H   0  0  0  0  0  0  0  0  0  0  0  0
  1  4  1  0  0  0  0
  1 31  1  0  0  0  0
  1 56  1  0  0  0  0
  2  3  1  0  0  0  0
  2  4  1  0  0  0  0
  2 57  1  0  0  0  0
  2 58  1  0  0  0  0
  3 49  1  0  0  0  0
  4  6  1  0  0  0  0
  4 59  1  1  0  0  0
  5  6  1  0  0  0  0
  5 60  1  0  0  0  0
  6  8  1  0  0  0  0
  6 61  1  1  0  0  0
  7 31  2  0  0  0  0
  8  9  2  0  0  0  0
  8 62  1  0  0  0  0
  9 11  1  0  0  0  0
  9 63  1  0  0  0  0
 10 50  1  0  0  0  0
 10 64  1  0  0  0  0
 11 13  1  0  0  0  0
 11 65  1  0  0  0  0
 11 66  1  0  0  0  0
 12 51  1  0  0  0  0
 12 55  1  0  0  0  0
 13 15  1  0  0  0  0
 13 67  1  0  0  0  0
 13 68  1  0  0  0  0
 14 55  1  0  0  0  0
 14 69  1  0  0  0  0
 15 17  1  0  0  0  0
 15 70  1  0  0  0  0
 15 71  1  0  0  0  0
 16 52  1  0  0  0  0
 16 72  1  0  0  0  0
 17 19  1  0  0  0  0
 17 73  1  0  0  0  0
 17 74  1  0  0  0  0
 18 49  1  0  0  0  0
 18 53  1  0  0  0  0
 19 21  1  0  0  0  0
 19 75  1  0  0  0  0
 19 76  1  0  0  0  0
 20 54  1  0  0  0  0
 20 77  1  0  0  0  0
 21 22  1  0  0  0  0
 21 78  1  0  0  0  0
 21 79  1  0  0  0  0
 22 23  1  0  0  0  0
 22 80  1  0  0  0  0
 22 81  1  0  0  0  0
 23 25  1  0  0  0  0
 23 82  1  0  0  0  0
 23 83  1  0  0  0  0
 24 55  1  0  0  0  0
 25 27  1  0  0  0  0
 25 84  1  0  0  0  0
 25 85  1  0  0  0  0
 26 55  1  0  0  0  0
 26 86  1  0  0  0  0
 27 28  1  0  0  0  0
 27 87  1  0  0  0  0
 27 88  1  0  0  0  0
 28 29  1  0  0  0  0
 28 89  1  0  0  0  0
 28 90  1  0  0  0  0
 29 30  1  0  0  0  0
 29 91  1  0  0  0  0
 29 92  1  0  0  0  0
 30 93  1  0  0  0  0
 30 94  1  0  0  0  0
 30 95  1  0  0  0  0
 31 32  1  0  0  0  0
 32 33  1  0  0  0  0
 32 96  1  0  0  0  0
 32 97  1  0  0  0  0
 33 34  1  0  0  0  0
 33 98  1  0  0  0  0
 33 99  1  0  0  0  0
 34 35  1  0  0  0  0
 34100  1  0  0  0  0
 34101  1  0  0  0  0
 35 36  1  0  0  0  0
 35102  1  0  0  0  0
 35103  1  0  0  0  0
 36 37  1  0  0  0  0
 36104  1  0  0  0  0
 36105  1  0  0  0  0
 37 38  1  0  0  0  0
 37106  1  0  0  0  0
 37107  1  0  0  0  0
 38 39  1  0  0  0  0
 38108  1  0  0  0  0
 38109  1  0  0  0  0
 39 40  1  0  0  0  0
 39110  1  0  0  0  0
 39111  1  0  0  0  0
 40 41  1  0  0  0  0
 40112  1  0  0  0  0
 40113  1  0  0  0  0
 41 42  1  0  0  0  0
 41114  1  0  0  0  0
 41115  1  0  0  0  0
 42 43  1  0  0  0  0
 42116  1  0  0  0  0
 42117  1  0  0  0  0
 43 44  1  0  0  0  0
 43118  1  0  0  0  0
 43119  1  0  0  0  0
 44 45  1  0  0  0  0
 44120  1  0  0  0  0
 44121  1  0  0  0  0
 45 46  1  0  0  0  0
 45122  1  0  0  0  0
 45123  1  0  0  0  0
 46 47  1  0  0  0  0
 46124  1  0  0  0  0
 46125  1  0  0  0  0
 47 48  1  0  0  0  0
 47126  1  0  0  0  0
 47127  1  0  0  0  0
 48128  1  0  0  0  0
 48129  1  0  0  0  0
 48130  1  0  0  0  0
 49 50  1  0  0  0  0
 49131  1  6  0  0  0
 50 51  1  0  0  0  0
 50132  1  1  0  0  0
 51 52  1  0  0  0  0
 51133  1  6  0  0  0
 52 53  1  0  0  0  0
 52134  1  6  0  0  0
 53 54  1  0  0  0  0
 53135  1  6  0  0  0
 54136  1  0  0  0  0
 54137  1  0  0  0  0
M  CHG  1  24  -1
M  END
$$$$