/media/chris/experiments/cd1a-new-docking/inputs/ligands/1onq_ligand.pdb
 OpenBabel06222310383D

137137  0  0  1  0  0  0  0  0999 V2000
  -40.4920   60.2280   63.6270 N   0  0  0  0  0  0  0  0  0  0  0  0
  -38.5950   61.7730   64.2860 C   0  0  0  0  0  0  0  0  0  0  0  0
  -39.2927   63.0412   64.1953 O   0  0  0  0  0  0  0  0  0  0  0  0
  -39.4590   60.5300   64.5980 C   0  0  1  0  0  0  0  0  0  0  0  0
  -39.2569   60.8461   66.8904 O   0  0  0  0  0  0  0  0  0  0  0  0
  -40.2280   60.5370   65.9080 C   0  0  2  0  0  0  0  0  0  0  0  0
  -41.4675   58.3885   64.5282 O   0  0  0  0  0  0  0  0  0  0  0  0
  -40.8583   59.1606   66.1332 C   0  0  0  0  0  0  0  0  0  0  0  0
  -40.1348   58.0332   66.2415 C   0  0  0  0  0  0  0  0  0  0  0  0
  -40.3964   65.2906   62.8172 O   0  0  0  0  0  0  0  0  0  0  0  0
  -40.8391   56.6963   66.4649 C   0  0  0  0  0  0  0  0  0  0  0  0
  -39.3931   68.0416   63.2594 O   0  0  0  0  0  0  0  0  0  0  0  0
  -40.0956   55.4940   65.8648 C   0  0  0  0  0  0  0  0  0  0  0  0
  -40.3295   68.0012   60.8431 O   0  0  0  0  0  0  0  0  0  0  0  0
  -39.8594   55.5478   64.3441 C   0  0  0  0  0  0  0  0  0  0  0  0
  -38.1858   67.4358   65.6297 O   0  0  0  0  0  0  0  0  0  0  0  0
  -39.1202   54.2779   63.8579 C   0  0  0  0  0  0  0  0  0  0  0  0
  -37.5407   64.5807   64.8630 O   0  0  0  0  0  0  0  0  0  0  0  0
  -37.7335   54.0311   64.5043 C   0  0  0  0  0  0  0  0  0  0  0  0
  -35.1272   67.3720   65.2776 O   0  0  0  0  0  0  0  0  0  0  0  0
  -37.7735   53.8511   66.0401 C   0  0  0  0  0  0  0  0  0  0  0  0
  -36.3831   53.6233   66.6716 C   0  0  0  0  0  0  0  0  0  0  0  0
  -36.4197   53.4273   68.1920 C   0  0  0  0  0  0  0  0  0  0  0  0
  -41.1616   69.6455   62.4221 O   0  5  0  0  0  0  0  0  0  0  0  0
  -37.2260   52.2320   68.6955 C   0  0  0  0  0  0  0  0  0  0  0  0
  -41.8523   67.3288   62.5967 O   0  0  0  0  0  0  0  0  0  0  0  0
  -38.7127   52.2643   68.2897 C   0  0  0  0  0  0  0  0  0  0  0  0
  -39.5553   51.0836   68.7956 C   0  0  0  0  0  0  0  0  0  0  0  0
  -41.0075   51.2026   68.3244 C   0  0  0  0  0  0  0  0  0  0  0  0
  -41.9547   50.1032   68.7713 C   0  0  0  0  0  0  0  0  0  0  0  0
  -41.3839   59.2282   63.6532 C   0  0  0  0  0  0  0  0  0  0  0  0
  -42.3351   59.1918   62.4940 C   0  0  0  0  0  0  0  0  0  0  0  0
  -41.9685   60.3730   61.5954 C   0  0  0  0  0  0  0  0  0  0  0  0
  -42.9053   60.4223   60.3907 C   0  0  0  0  0  0  0  0  0  0  0  0
  -42.6536   61.5326   59.3996 C   0  0  0  0  0  0  0  0  0  0  0  0
  -43.6994   61.4112   58.2962 C   0  0  0  0  0  0  0  0  0  0  0  0
  -43.5401   62.4813   57.2080 C   0  0  0  0  0  0  0  0  0  0  0  0
  -44.5898   62.4015   56.0844 C   0  0  0  0  0  0  0  0  0  0  0  0
  -44.3899   63.4811   54.9981 C   0  0  0  0  0  0  0  0  0  0  0  0
  -45.4690   63.3663   53.9176 C   0  0  0  0  0  0  0  0  0  0  0  0
  -45.3559   64.3775   52.7832 C   0  0  0  0  0  0  0  0  0  0  0  0
  -46.4668   64.2188   51.7556 C   0  0  0  0  0  0  0  0  0  0  0  0
  -46.5512   62.8563   51.0636 C   0  0  0  0  0  0  0  0  0  0  0  0
  -45.2305   62.6030   50.3492 C   0  0  0  0  0  0  0  0  0  0  0  0
  -44.7778   63.5886   49.2821 C   0  0  0  0  0  0  0  0  0  0  0  0
  -45.8107   63.6840   48.1481 C   0  0  0  0  0  0  0  0  0  0  0  0
  -46.0916   62.3531   47.4265 C   0  0  0  0  0  0  0  0  0  0  0  0
  -47.1082   62.4826   46.2945 C   0  0  0  0  0  0  0  0  0  0  0  0
  -38.5707   64.2916   63.8868 C   0  0  2  0  0  0  0  0  0  0  0  0
  -39.4297   65.5603   63.7851 C   0  0  1  0  0  0  0  0  0  0  0  0
  -38.6385   66.8115   63.3449 C   0  0  2  0  0  0  0  0  0  0  0  0
  -37.5890   67.0373   64.3980 C   0  0  2  0  0  0  0  0  0  0  0  0
  -36.7643   65.7760   64.5802 C   0  0  1  0  0  0  0  0  0  0  0  0
  -35.7901   66.2089   65.6736 C   0  0  0  0  0  0  0  0  0  0  0  0
  -40.7155   68.2343   62.2663 S   0  0  0  0  0  0  0  0  0  0  0  0
  -40.5449   60.8326   62.8518 H   0  0  0  0  0  0  0  0  0  0  0  0
  -37.8608   61.8607   65.0594 H   0  0  0  0  0  0  0  0  0  0  0  0
  -38.1940   61.6005   63.3091 H   0  0  0  0  0  0  0  0  0  0  0  0
  -38.6677   59.8099   64.6092 H   0  0  0  0  0  0  0  0  0  0  0  0
  -38.8837   61.7234   66.7113 H   0  0  0  0  0  0  0  0  0  0  0  0
  -41.0317   61.2430   65.9299 H   0  0  0  0  0  0  0  0  0  0  0  0
  -41.8857   59.0952   66.2050 H   0  0  0  0  0  0  0  0  0  0  0  0
  -39.1057   58.0706   66.1740 H   0  0  0  0  0  0  0  0  0  0  0  0
  -40.9043   64.5062   63.0773 H   0  0  0  0  0  0  0  0  0  0  0  0
  -41.8105   56.7485   66.0191 H   0  0  0  0  0  0  0  0  0  0  0  0
  -40.8807   56.5397   67.5225 H   0  0  0  0  0  0  0  0  0  0  0  0
  -40.6663   54.6144   66.0782 H   0  0  0  0  0  0  0  0  0  0  0  0
  -39.1235   55.4988   66.3119 H   0  0  0  0  0  0  0  0  0  0  0  0
  -39.5894   68.5830   60.6093 H   0  0  0  0  0  0  0  0  0  0  0  0
  -39.2682   56.4087   64.1111 H   0  0  0  0  0  0  0  0  0  0  0  0
  -40.8075   55.6028   63.8513 H   0  0  0  0  0  0  0  0  0  0  0  0
  -38.7070   68.2420   65.4906 H   0  0  0  0  0  0  0  0  0  0  0  0
  -38.9819   54.3604   62.8001 H   0  0  0  0  0  0  0  0  0  0  0  0
  -39.7331   53.4497   64.1466 H   0  0  0  0  0  0  0  0  0  0  0  0
  -37.1052   54.8679   64.2806 H   0  0  0  0  0  0  0  0  0  0  0  0
  -37.3627   53.1140   64.0965 H   0  0  0  0  0  0  0  0  0  0  0  0
  -34.5092   67.6449   65.9736 H   0  0  0  0  0  0  0  0  0  0  0  0
  -38.3902   53.0063   66.2658 H   0  0  0  0  0  0  0  0  0  0  0  0
  -38.1609   54.7592   66.4527 H   0  0  0  0  0  0  0  0  0  0  0  0
  -35.7708   54.4738   66.4556 H   0  0  0  0  0  0  0  0  0  0  0  0
  -35.9928   52.7207   66.2499 H   0  0  0  0  0  0  0  0  0  0  0  0
  -36.8393   54.3109   68.6256 H   0  0  0  0  0  0  0  0  0  0  0  0
  -35.4079   53.2343   68.4816 H   0  0  0  0  0  0  0  0  0  0  0  0
  -37.1690   52.2134   69.7639 H   0  0  0  0  0  0  0  0  0  0  0  0
  -36.8007   51.3594   68.2455 H   0  0  0  0  0  0  0  0  0  0  0  0
  -41.5700   66.4061   62.4977 H   0  0  0  0  0  0  0  0  0  0  0  0
  -38.7639   52.2735   67.2210 H   0  0  0  0  0  0  0  0  0  0  0  0
  -39.1256   53.1401   68.7453 H   0  0  0  0  0  0  0  0  0  0  0  0
  -39.5346   51.0721   69.8653 H   0  0  0  0  0  0  0  0  0  0  0  0
  -39.1430   50.1779   68.4024 H   0  0  0  0  0  0  0  0  0  0  0  0
  -41.0028   51.2132   67.2545 H   0  0  0  0  0  0  0  0  0  0  0  0
  -41.3799   52.0990   68.7748 H   0  0  0  0  0  0  0  0  0  0  0  0
  -41.6396   49.1696   68.3540 H   0  0  0  0  0  0  0  0  0  0  0  0
  -42.9455   50.3277   68.4355 H   0  0  0  0  0  0  0  0  0  0  0  0
  -41.9463   50.0375   69.8393 H   0  0  0  0  0  0  0  0  0  0  0  0
  -43.3430   59.2890   62.8396 H   0  0  0  0  0  0  0  0  0  0  0  0
  -42.2640   58.2651   61.9637 H   0  0  0  0  0  0  0  0  0  0  0  0
  -40.9601   60.2605   61.2558 H   0  0  0  0  0  0  0  0  0  0  0  0
  -42.0643   61.2815   62.1525 H   0  0  0  0  0  0  0  0  0  0  0  0
  -43.9044   60.5317   60.7577 H   0  0  0  0  0  0  0  0  0  0  0  0
  -42.7320   59.5129   59.8542 H   0  0  0  0  0  0  0  0  0  0  0  0
  -41.6722   61.4356   58.9844 H   0  0  0  0  0  0  0  0  0  0  0  0
  -42.7217   62.4868   59.8788 H   0  0  0  0  0  0  0  0  0  0  0  0
  -44.6710   61.5097   58.7334 H   0  0  0  0  0  0  0  0  0  0  0  0
  -43.5692   60.4562   57.8315 H   0  0  0  0  0  0  0  0  0  0  0  0
  -42.5704   62.3718   56.7693 H   0  0  0  0  0  0  0  0  0  0  0  0
  -43.6745   63.4287   57.6869 H   0  0  0  0  0  0  0  0  0  0  0  0
  -45.5613   62.5262   56.5151 H   0  0  0  0  0  0  0  0  0  0  0  0
  -44.4834   61.4471   55.6124 H   0  0  0  0  0  0  0  0  0  0  0  0
  -43.4274   63.3533   54.5485 H   0  0  0  0  0  0  0  0  0  0  0  0
  -44.4606   64.4463   55.4545 H   0  0  0  0  0  0  0  0  0  0  0  0
  -46.4222   63.4978   54.3855 H   0  0  0  0  0  0  0  0  0  0  0  0
  -45.3435   62.4018   53.4716 H   0  0  0  0  0  0  0  0  0  0  0  0
  -44.4135   64.2428   52.2948 H   0  0  0  0  0  0  0  0  0  0  0  0
  -45.4398   65.3562   53.2075 H   0  0  0  0  0  0  0  0  0  0  0  0
  -46.3216   64.9616   50.9993 H   0  0  0  0  0  0  0  0  0  0  0  0
  -47.3813   64.3222   52.3013 H   0  0  0  0  0  0  0  0  0  0  0  0
  -47.3521   62.8595   50.3541 H   0  0  0  0  0  0  0  0  0  0  0  0
  -46.7354   62.0868   51.7839 H   0  0  0  0  0  0  0  0  0  0  0  0
  -45.3043   61.6436   49.8812 H   0  0  0  0  0  0  0  0  0  0  0  0
  -44.4949   62.6979   51.1204 H   0  0  0  0  0  0  0  0  0  0  0  0
  -43.8429   63.2615   48.8775 H   0  0  0  0  0  0  0  0  0  0  0  0
  -44.6740   64.5542   49.7314 H   0  0  0  0  0  0  0  0  0  0  0  0
  -45.4500   64.3862   47.4257 H   0  0  0  0  0  0  0  0  0  0  0  0
  -46.7324   63.9853   48.6005 H   0  0  0  0  0  0  0  0  0  0  0  0
  -46.4673   61.6516   48.1418 H   0  0  0  0  0  0  0  0  0  0  0  0
  -45.1703   62.0290   46.9894 H   0  0  0  0  0  0  0  0  0  0  0  0
  -48.0469   62.8063   46.6935 H   0  0  0  0  0  0  0  0  0  0  0  0
  -47.2322   61.5335   45.8162 H   0  0  0  0  0  0  0  0  0  0  0  0
  -46.7580   63.1987   45.5808 H   0  0  0  0  0  0  0  0  0  0  0  0
  -38.1706   64.0792   62.9174 H   0  0  0  0  0  0  0  0  0  0  0  0
  -39.8304   65.7822   64.7521 H   0  0  0  0  0  0  0  0  0  0  0  0
  -38.2799   66.6080   62.3576 H   0  0  0  0  0  0  0  0  0  0  0  0
  -36.9429   67.8280   64.0783 H   0  0  0  0  0  0  0  0  0  0  0  0
  -36.2694   65.4476   63.6902 H   0  0  0  0  0  0  0  0  0  0  0  0
  -36.3305   66.3975   66.5776 H   0  0  0  0  0  0  0  0  0  0  0  0
  -35.0741   65.4312   65.8394 H   0  0  0  0  0  0  0  0  0  0  0  0
  1  4  1  0  0  0  0
  1 31  1  0  0  0  0
  1 56  1  0  0  0  0
  2  3  1  0  0  0  0
  2  4  1  0  0  0  0
  2 57  1  0  0  0  0
  2 58  1  0  0  0  0
  3 49  1  0  0  0  0
  4  6  1  0  0  0  0
  4 59  1  1  0  0  0
  5  6  1  0  0  0  0
  5 60  1  0  0  0  0
  6  8  1  0  0  0  0
  6 61  1  6  0  0  0
  7 31  2  0  0  0  0
  8  9  2  0  0  0  0
  8 62  1  0  0  0  0
  9 11  1  0  0  0  0
  9 63  1  0  0  0  0
 10 50  1  0  0  0  0
 10 64  1  0  0  0  0
 11 13  1  0  0  0  0
 11 65  1  0  0  0  0
 11 66  1  0  0  0  0
 12 51  1  0  0  0  0
 12 55  1  0  0  0  0
 13 15  1  0  0  0  0
 13 67  1  0  0  0  0
 13 68  1  0  0  0  0
 14 55  1  0  0  0  0
 14 69  1  0  0  0  0
 15 17  1  0  0  0  0
 15 70  1  0  0  0  0
 15 71  1  0  0  0  0
 16 52  1  0  0  0  0
 16 72  1  0  0  0  0
 17 19  1  0  0  0  0
 17 73  1  0  0  0  0
 17 74  1  0  0  0  0
 18 49  1  0  0  0  0
 18 53  1  0  0  0  0
 19 21  1  0  0  0  0
 19 75  1  0  0  0  0
 19 76  1  0  0  0  0
 20 54  1  0  0  0  0
 20 77  1  0  0  0  0
 21 22  1  0  0  0  0
 21 78  1  0  0  0  0
 21 79  1  0  0  0  0
 22 23  1  0  0  0  0
 22 80  1  0  0  0  0
 22 81  1  0  0  0  0
 23 25  1  0  0  0  0
 23 82  1  0  0  0  0
 23 83  1  0  0  0  0
 24 55  1  0  0  0  0
 25 27  1  0  0  0  0
 25 84  1  0  0  0  0
 25 85  1  0  0  0  0
 26 55  1  0  0  0  0
 26 86  1  0  0  0  0
 27 28  1  0  0  0  0
 27 87  1  0  0  0  0
 27 88  1  0  0  0  0
 28 29  1  0  0  0  0
 28 89  1  0  0  0  0
 28 90  1  0  0  0  0
 29 30  1  0  0  0  0
 29 91  1  0  0  0  0
 29 92  1  0  0  0  0
 30 93  1  0  0  0  0
 30 94  1  0  0  0  0
 30 95  1  0  0  0  0
 31 32  1  0  0  0  0
 32 33  1  0  0  0  0
 32 96  1  0  0  0  0
 32 97  1  0  0  0  0
 33 34  1  0  0  0  0
 33 98  1  0  0  0  0
 33 99  1  0  0  0  0
 34 35  1  0  0  0  0
 34100  1  0  0  0  0
 34101  1  0  0  0  0
 35 36  1  0  0  0  0
 35102  1  0  0  0  0
 35103  1  0  0  0  0
 36 37  1  0  0  0  0
 36104  1  0  0  0  0
 36105  1  0  0  0  0
 37 38  1  0  0  0  0
 37106  1  0  0  0  0
 37107  1  0  0  0  0
 38 39  1  0  0  0  0
 38108  1  0  0  0  0
 38109  1  0  0  0  0
 39 40  1  0  0  0  0
 39110  1  0  0  0  0
 39111  1  0  0  0  0
 40 41  1  0  0  0  0
 40112  1  0  0  0  0
 40113  1  0  0  0  0
 41 42  1  0  0  0  0
 41114  1  0  0  0  0
 41115  1  0  0  0  0
 42 43  1  0  0  0  0
 42116  1  0  0  0  0
 42117  1  0  0  0  0
 43 44  1  0  0  0  0
 43118  1  0  0  0  0
 43119  1  0  0  0  0
 44 45  1  0  0  0  0
 44120  1  0  0  0  0
 44121  1  0  0  0  0
 45 46  1  0  0  0  0
 45122  1  0  0  0  0
 45123  1  0  0  0  0
 46 47  1  0  0  0  0
 46124  1  0  0  0  0
 46125  1  0  0  0  0
 47 48  1  0  0  0  0
 47126  1  0  0  0  0
 47127  1  0  0  0  0
 48128  1  0  0  0  0
 48129  1  0  0  0  0
 48130  1  0  0  0  0
 49 50  1  0  0  0  0
 49131  1  6  0  0  0
 50 51  1  0  0  0  0
 50132  1  1  0  0  0
 51 52  1  0  0  0  0
 51133  1  6  0  0  0
 52 53  1  0  0  0  0
 52134  1  6  0  0  0
 53 54  1  0  0  0  0
 53135  1  6  0  0  0
 54136  1  0  0  0  0
 54137  1  0  0  0  0
M  CHG  1  24  -1
M  END
$$$$