/media/chris/experiments/cd1a-new-docking/inputs/ligands/1onq_ligand.pdb
 OpenBabel06222310383D

137137  0  0  1  0  0  0  0  0999 V2000
  -40.4920   60.2280   63.6270 N   0  0  0  0  0  0  0  0  0  0  0  0
  -38.5950   61.7730   64.2860 C   0  0  0  0  0  0  0  0  0  0  0  0
  -37.5441   62.0867   65.2349 O   0  0  0  0  0  0  0  0  0  0  0  0
  -39.4590   60.5300   64.5980 C   0  0  1  0  0  0  0  0  0  0  0  0
  -39.2569   60.8461   66.8904 O   0  0  0  0  0  0  0  0  0  0  0  0
  -40.2280   60.5370   65.9080 C   0  0  2  0  0  0  0  0  0  0  0  0
  -41.8540   58.8360   62.4630 O   0  0  0  0  0  0  0  0  0  0  0  0
  -40.8583   59.1606   66.1332 C   0  0  0  0  0  0  0  0  0  0  0  0
  -41.0723   58.6448   67.3556 C   0  0  0  0  0  0  0  0  0  0  0  0
  -34.8829   62.7993   66.0015 O   0  0  0  0  0  0  0  0  0  0  0  0
  -41.7060   57.2621   67.4971 C   0  0  0  0  0  0  0  0  0  0  0  0
  -33.1821   60.9883   67.6133 O   0  0  0  0  0  0  0  0  0  0  0  0
  -43.0995   57.1490   66.8618 C   0  0  0  0  0  0  0  0  0  0  0  0
  -32.2232   58.7100   68.3924 O   0  0  0  0  0  0  0  0  0  0  0  0
  -44.1652   58.1121   67.4166 C   0  0  0  0  0  0  0  0  0  0  0  0
  -35.2780   59.4877   68.5068 O   0  0  0  0  0  0  0  0  0  0  0  0
  -45.5255   57.8908   66.7124 C   0  0  0  0  0  0  0  0  0  0  0  0
  -36.9441   59.8674   66.0098 O   0  0  0  0  0  0  0  0  0  0  0  0
  -46.6726   58.8213   67.1814 C   0  0  0  0  0  0  0  0  0  0  0  0
  -35.2824   56.7380   67.1203 O   0  0  0  0  0  0  0  0  0  0  0  0
  -46.3987   60.3271   66.9567 C   0  0  0  0  0  0  0  0  0  0  0  0
  -46.1890   60.7020   65.4737 C   0  0  0  0  0  0  0  0  0  0  0  0
  -47.3985   60.3963   64.5822 C   0  0  0  0  0  0  0  0  0  0  0  0
  -31.0687   60.7605   68.9854 O   0  5  0  0  0  0  0  0  0  0  0  0
  -48.6956   61.1190   64.9395 C   0  0  0  0  0  0  0  0  0  0  0  0
  -30.9418   59.9004   66.7230 O   0  0  0  0  0  0  0  0  0  0  0  0
  -49.8831   60.7632   64.0234 C   0  0  0  0  0  0  0  0  0  0  0  0
  -51.1991   61.4870   64.3464 C   0  0  0  0  0  0  0  0  0  0  0  0
  -51.0379   63.0045   64.2182 C   0  0  0  0  0  0  0  0  0  0  0  0
  -52.2657   63.8424   64.5280 C   0  0  0  0  0  0  0  0  0  0  0  0
  -40.9921   59.0290   63.2983 C   0  0  0  0  0  0  0  0  0  0  0  0
  -40.4035   57.8670   64.0420 C   0  0  0  0  0  0  0  0  0  0  0  0
  -39.7820   56.9489   62.9893 C   0  0  0  0  0  0  0  0  0  0  0  0
  -39.1706   55.7225   63.6625 C   0  0  0  0  0  0  0  0  0  0  0  0
  -38.0891   55.9942   64.6799 C   0  0  0  0  0  0  0  0  0  0  0  0
  -37.6081   54.6483   65.2118 C   0  0  0  0  0  0  0  0  0  0  0  0
  -38.7315   53.8338   65.8672 C   0  0  0  0  0  0  0  0  0  0  0  0
  -38.2801   52.4745   66.4320 C   0  0  0  0  0  0  0  0  0  0  0  0
  -37.6694   51.5501   65.3559 C   0  0  0  0  0  0  0  0  0  0  0  0
  -36.4298   52.1955   64.7299 C   0  0  0  0  0  0  0  0  0  0  0  0
  -35.7553   51.3724   63.6392 C   0  0  0  0  0  0  0  0  0  0  0  0
  -34.5232   52.0630   63.0734 C   0  0  0  0  0  0  0  0  0  0  0  0
  -33.7881   51.3163   61.9579 C   0  0  0  0  0  0  0  0  0  0  0  0
  -33.3431   49.9657   62.5026 C   0  0  0  0  0  0  0  0  0  0  0  0
  -32.4170   49.9352   63.7094 C   0  0  0  0  0  0  0  0  0  0  0  0
  -32.0675   48.4899   64.0980 C   0  0  0  0  0  0  0  0  0  0  0  0
  -33.2821   47.6128   64.4537 C   0  0  0  0  0  0  0  0  0  0  0  0
  -34.0980   48.1568   65.6241 C   0  0  0  0  0  0  0  0  0  0  0  0
  -36.4503   61.1334   65.5086 C   0  0  2  0  0  0  0  0  0  0  0  0
  -35.3818   61.5997   66.5077 C   0  0  1  0  0  0  0  0  0  0  0  0
  -34.2046   60.6120   66.6632 C   0  0  2  0  0  0  0  0  0  0  0  0
  -34.7978   59.3281   67.1741 C   0  0  2  0  0  0  0  0  0  0  0  0
  -35.9120   58.8730   66.2490 C   0  0  1  0  0  0  0  0  0  0  0  0
  -36.3724   57.5915   66.9404 C   0  0  0  0  0  0  0  0  0  0  0  0
  -31.8278   60.0664   67.9100 S   0  0  0  0  0  0  0  0  0  0  0  0
  -40.8737   60.9998   63.1496 H   0  0  0  0  0  0  0  0  0  0  0  0
  -38.1357   61.6183   63.3320 H   0  0  0  0  0  0  0  0  0  0  0  0
  -39.2690   62.6030   64.3261 H   0  0  0  0  0  0  0  0  0  0  0  0
  -38.6677   59.8099   64.6092 H   0  0  0  0  0  0  0  0  0  0  0  0
  -38.8837   61.7234   66.7113 H   0  0  0  0  0  0  0  0  0  0  0  0
  -41.0317   61.2430   65.9299 H   0  0  0  0  0  0  0  0  0  0  0  0
  -41.1313   58.6032   65.3087 H   0  0  0  0  0  0  0  0  0  0  0  0
  -40.8092   59.1816   68.1968 H   0  0  0  0  0  0  0  0  0  0  0  0
  -35.6096   63.4332   65.8970 H   0  0  0  0  0  0  0  0  0  0  0  0
  -41.7914   57.0356   68.5393 H   0  0  0  0  0  0  0  0  0  0  0  0
  -41.0711   56.5746   66.9783 H   0  0  0  0  0  0  0  0  0  0  0  0
  -43.4495   56.1491   67.0123 H   0  0  0  0  0  0  0  0  0  0  0  0
  -42.9738   57.4137   65.8327 H   0  0  0  0  0  0  0  0  0  0  0  0
  -32.8013   58.7979   69.1663 H   0  0  0  0  0  0  0  0  0  0  0  0
  -43.8458   59.1203   67.2538 H   0  0  0  0  0  0  0  0  0  0  0  0
  -44.2859   57.9243   68.4631 H   0  0  0  0  0  0  0  0  0  0  0  0
  -34.5511   59.7783   69.0797 H   0  0  0  0  0  0  0  0  0  0  0  0
  -45.8277   56.8794   66.8875 H   0  0  0  0  0  0  0  0  0  0  0  0
  -45.3644   58.1171   65.6791 H   0  0  0  0  0  0  0  0  0  0  0  0
  -46.8284   58.6609   68.2278 H   0  0  0  0  0  0  0  0  0  0  0  0
  -47.5305   58.5733   66.5920 H   0  0  0  0  0  0  0  0  0  0  0  0
  -35.5774   55.9250   67.5595 H   0  0  0  0  0  0  0  0  0  0  0  0
  -45.5178   60.5957   67.5015 H   0  0  0  0  0  0  0  0  0  0  0  0
  -47.2639   60.8576   67.2955 H   0  0  0  0  0  0  0  0  0  0  0  0
  -45.3487   60.1534   65.1023 H   0  0  0  0  0  0  0  0  0  0  0  0
  -46.0345   61.7602   65.4381 H   0  0  0  0  0  0  0  0  0  0  0  0
  -47.5855   59.3441   64.6342 H   0  0  0  0  0  0  0  0  0  0  0  0
  -47.1330   60.7472   63.6068 H   0  0  0  0  0  0  0  0  0  0  0  0
  -48.5231   62.1729   64.8730 H   0  0  0  0  0  0  0  0  0  0  0  0
  -48.9621   60.8073   65.9277 H   0  0  0  0  0  0  0  0  0  0  0  0
  -31.4291   59.4484   66.0165 H   0  0  0  0  0  0  0  0  0  0  0  0
  -50.0570   59.7103   64.1009 H   0  0  0  0  0  0  0  0  0  0  0  0
  -49.6043   61.0795   63.0400 H   0  0  0  0  0  0  0  0  0  0  0  0
  -51.4920   61.2498   65.3479 H   0  0  0  0  0  0  0  0  0  0  0  0
  -51.9450   61.1639   63.6507 H   0  0  0  0  0  0  0  0  0  0  0  0
  -50.7445   63.2167   63.2113 H   0  0  0  0  0  0  0  0  0  0  0  0
  -50.3139   63.2768   64.9575 H   0  0  0  0  0  0  0  0  0  0  0  0
  -53.0373   63.6195   63.8210 H   0  0  0  0  0  0  0  0  0  0  0  0
  -52.0139   64.8805   64.4657 H   0  0  0  0  0  0  0  0  0  0  0  0
  -52.6109   63.6178   65.5155 H   0  0  0  0  0  0  0  0  0  0  0  0
  -41.1680   57.3474   64.5809 H   0  0  0  0  0  0  0  0  0  0  0  0
  -39.6724   58.1921   64.7524 H   0  0  0  0  0  0  0  0  0  0  0  0
  -39.0185   57.4809   62.4613 H   0  0  0  0  0  0  0  0  0  0  0  0
  -40.5422   56.6324   62.3061 H   0  0  0  0  0  0  0  0  0  0  0  0
  -38.7512   55.1041   62.8967 H   0  0  0  0  0  0  0  0  0  0  0  0
  -39.9698   55.2650   64.2074 H   0  0  0  0  0  0  0  0  0  0  0  0
  -38.4821   56.5840   65.4815 H   0  0  0  0  0  0  0  0  0  0  0  0
  -37.2797   56.5330   64.2333 H   0  0  0  0  0  0  0  0  0  0  0  0
  -36.8422   54.8215   65.9387 H   0  0  0  0  0  0  0  0  0  0  0  0
  -37.2435   54.0837   64.3792 H   0  0  0  0  0  0  0  0  0  0  0  0
  -39.4896   53.6569   65.1330 H   0  0  0  0  0  0  0  0  0  0  0  0
  -39.0839   54.4095   66.6974 H   0  0  0  0  0  0  0  0  0  0  0  0
  -39.1287   51.9844   66.8616 H   0  0  0  0  0  0  0  0  0  0  0  0
  -37.5200   52.6657   67.1604 H   0  0  0  0  0  0  0  0  0  0  0  0
  -38.3968   51.3719   64.5917 H   0  0  0  0  0  0  0  0  0  0  0  0
  -37.3822   50.6280   65.8165 H   0  0  0  0  0  0  0  0  0  0  0  0
  -35.7150   52.3645   65.5079 H   0  0  0  0  0  0  0  0  0  0  0  0
  -36.7671   53.0954   64.2594 H   0  0  0  0  0  0  0  0  0  0  0  0
  -36.4553   51.2131   62.8458 H   0  0  0  0  0  0  0  0  0  0  0  0
  -35.4409   50.4469   64.0746 H   0  0  0  0  0  0  0  0  0  0  0  0
  -33.8332   52.2119   63.8775 H   0  0  0  0  0  0  0  0  0  0  0  0
  -34.8791   52.9686   62.6283 H   0  0  0  0  0  0  0  0  0  0  0  0
  -32.9340   51.8804   61.6462 H   0  0  0  0  0  0  0  0  0  0  0  0
  -34.4342   51.1806   61.1159 H   0  0  0  0  0  0  0  0  0  0  0  0
  -32.8416   49.4549   61.7074 H   0  0  0  0  0  0  0  0  0  0  0  0
  -34.2476   49.5170   62.8570 H   0  0  0  0  0  0  0  0  0  0  0  0
  -32.9023   50.4122   64.5352 H   0  0  0  0  0  0  0  0  0  0  0  0
  -31.5127   50.4494   63.4587 H   0  0  0  0  0  0  0  0  0  0  0  0
  -31.4171   48.5201   64.9471 H   0  0  0  0  0  0  0  0  0  0  0  0
  -31.6124   48.0451   63.2378 H   0  0  0  0  0  0  0  0  0  0  0  0
  -32.9315   46.6348   64.7095 H   0  0  0  0  0  0  0  0  0  0  0  0
  -33.9249   47.5997   63.5983 H   0  0  0  0  0  0  0  0  0  0  0  0
  -33.4869   48.1853   66.5020 H   0  0  0  0  0  0  0  0  0  0  0  0
  -34.9412   47.5213   65.7970 H   0  0  0  0  0  0  0  0  0  0  0  0
  -34.4374   49.1450   65.3936 H   0  0  0  0  0  0  0  0  0  0  0  0
  -35.9925   61.0440   64.5457 H   0  0  0  0  0  0  0  0  0  0  0  0
  -35.8309   61.6875   67.4750 H   0  0  0  0  0  0  0  0  0  0  0  0
  -33.7257   60.5630   65.7076 H   0  0  0  0  0  0  0  0  0  0  0  0
  -34.0355   58.5774   67.1903 H   0  0  0  0  0  0  0  0  0  0  0  0
  -35.5992   58.7098   65.2389 H   0  0  0  0  0  0  0  0  0  0  0  0
  -36.7961   57.8333   67.8927 H   0  0  0  0  0  0  0  0  0  0  0  0
  -37.1076   57.1054   66.3338 H   0  0  0  0  0  0  0  0  0  0  0  0
  1  4  1  0  0  0  0
  1 31  1  0  0  0  0
  1 56  1  0  0  0  0
  2  3  1  0  0  0  0
  2  4  1  0  0  0  0
  2 57  1  0  0  0  0
  2 58  1  0  0  0  0
  3 49  1  0  0  0  0
  4  6  1  0  0  0  0
  4 59  1  1  0  0  0
  5  6  1  0  0  0  0
  5 60  1  0  0  0  0
  6  8  1  0  0  0  0
  6 61  1  6  0  0  0
  7 31  2  0  0  0  0
  8  9  2  0  0  0  0
  8 62  1  0  0  0  0
  9 11  1  0  0  0  0
  9 63  1  0  0  0  0
 10 50  1  0  0  0  0
 10 64  1  0  0  0  0
 11 13  1  0  0  0  0
 11 65  1  0  0  0  0
 11 66  1  0  0  0  0
 12 51  1  0  0  0  0
 12 55  1  0  0  0  0
 13 15  1  0  0  0  0
 13 67  1  0  0  0  0
 13 68  1  0  0  0  0
 14 55  1  0  0  0  0
 14 69  1  0  0  0  0
 15 17  1  0  0  0  0
 15 70  1  0  0  0  0
 15 71  1  0  0  0  0
 16 52  1  0  0  0  0
 16 72  1  0  0  0  0
 17 19  1  0  0  0  0
 17 73  1  0  0  0  0
 17 74  1  0  0  0  0
 18 49  1  0  0  0  0
 18 53  1  0  0  0  0
 19 21  1  0  0  0  0
 19 75  1  0  0  0  0
 19 76  1  0  0  0  0
 20 54  1  0  0  0  0
 20 77  1  0  0  0  0
 21 22  1  0  0  0  0
 21 78  1  0  0  0  0
 21 79  1  0  0  0  0
 22 23  1  0  0  0  0
 22 80  1  0  0  0  0
 22 81  1  0  0  0  0
 23 25  1  0  0  0  0
 23 82  1  0  0  0  0
 23 83  1  0  0  0  0
 24 55  1  0  0  0  0
 25 27  1  0  0  0  0
 25 84  1  0  0  0  0
 25 85  1  0  0  0  0
 26 55  1  0  0  0  0
 26 86  1  0  0  0  0
 27 28  1  0  0  0  0
 27 87  1  0  0  0  0
 27 88  1  0  0  0  0
 28 29  1  0  0  0  0
 28 89  1  0  0  0  0
 28 90  1  0  0  0  0
 29 30  1  0  0  0  0
 29 91  1  0  0  0  0
 29 92  1  0  0  0  0
 30 93  1  0  0  0  0
 30 94  1  0  0  0  0
 30 95  1  0  0  0  0
 31 32  1  0  0  0  0
 32 33  1  0  0  0  0
 32 96  1  0  0  0  0
 32 97  1  0  0  0  0
 33 34  1  0  0  0  0
 33 98  1  0  0  0  0
 33 99  1  0  0  0  0
 34 35  1  0  0  0  0
 34100  1  0  0  0  0
 34101  1  0  0  0  0
 35 36  1  0  0  0  0
 35102  1  0  0  0  0
 35103  1  0  0  0  0
 36 37  1  0  0  0  0
 36104  1  0  0  0  0
 36105  1  0  0  0  0
 37 38  1  0  0  0  0
 37106  1  0  0  0  0
 37107  1  0  0  0  0
 38 39  1  0  0  0  0
 38108  1  0  0  0  0
 38109  1  0  0  0  0
 39 40  1  0  0  0  0
 39110  1  0  0  0  0
 39111  1  0  0  0  0
 40 41  1  0  0  0  0
 40112  1  0  0  0  0
 40113  1  0  0  0  0
 41 42  1  0  0  0  0
 41114  1  0  0  0  0
 41115  1  0  0  0  0
 42 43  1  0  0  0  0
 42116  1  0  0  0  0
 42117  1  0  0  0  0
 43 44  1  0  0  0  0
 43118  1  0  0  0  0
 43119  1  0  0  0  0
 44 45  1  0  0  0  0
 44120  1  0  0  0  0
 44121  1  0  0  0  0
 45 46  1  0  0  0  0
 45122  1  0  0  0  0
 45123  1  0  0  0  0
 46 47  1  0  0  0  0
 46124  1  0  0  0  0
 46125  1  0  0  0  0
 47 48  1  0  0  0  0
 47126  1  0  0  0  0
 47127  1  0  0  0  0
 48128  1  0  0  0  0
 48129  1  0  0  0  0
 48130  1  0  0  0  0
 49 50  1  0  0  0  0
 49131  1  6  0  0  0
 50 51  1  0  0  0  0
 50132  1  1  0  0  0
 51 52  1  0  0  0  0
 51133  1  6  0  0  0
 52 53  1  0  0  0  0
 52134  1  1  0  0  0
 53 54  1  0  0  0  0
 53135  1  6  0  0  0
 54136  1  0  0  0  0
 54137  1  0  0  0  0
M  CHG  1  24  -1
M  END
$$$$