/media/chris/experiments/cd1a-new-docking/inputs/ligands/1onq_ligand.pdb
 OpenBabel06222310383D

137137  0  0  1  0  0  0  0  0999 V2000
  -40.4920   60.2280   63.6270 N   0  0  0  0  0  0  0  0  0  0  0  0
  -38.5950   61.7730   64.2860 C   0  0  0  0  0  0  0  0  0  0  0  0
  -39.2927   63.0412   64.1953 O   0  0  0  0  0  0  0  0  0  0  0  0
  -39.4590   60.5300   64.5980 C   0  0  1  0  0  0  0  0  0  0  0  0
  -39.2569   60.8461   66.8904 O   0  0  0  0  0  0  0  0  0  0  0  0
  -40.2280   60.5370   65.9080 C   0  0  2  0  0  0  0  0  0  0  0  0
  -42.2618   61.3924   64.4390 O   0  0  0  0  0  0  0  0  0  0  0  0
  -40.8583   59.1606   66.1332 C   0  0  0  0  0  0  0  0  0  0  0  0
  -42.0897   58.8399   65.7007 C   0  0  0  0  0  0  0  0  0  0  0  0
  -36.9245   63.2334   62.6041 O   0  0  0  0  0  0  0  0  0  0  0  0
  -42.6490   57.4435   65.9661 C   0  0  0  0  0  0  0  0  0  0  0  0
  -36.2474   65.6923   61.0988 O   0  0  0  0  0  0  0  0  0  0  0  0
  -42.7691   57.0949   67.4568 C   0  0  0  0  0  0  0  0  0  0  0  0
  -33.9903   64.5362   61.6333 O   0  0  0  0  0  0  0  0  0  0  0  0
  -43.6955   58.0071   68.2821 C   0  0  0  0  0  0  0  0  0  0  0  0
  -38.7865   66.6864   61.1867 O   0  0  0  0  0  0  0  0  0  0  0  0
  -45.1443   57.9532   67.7402 C   0  0  0  0  0  0  0  0  0  0  0  0
  -39.4547   65.4386   63.8611 O   0  0  0  0  0  0  0  0  0  0  0  0
  -46.1639   58.8496   68.4873 C   0  0  0  0  0  0  0  0  0  0  0  0
  -40.5437   67.6756   62.3121 O   0  0  0  0  0  0  0  0  0  0  0  0
  -47.6066   58.7632   67.9359 C   0  0  0  0  0  0  0  0  0  0  0  0
  -48.2155   57.3467   68.0187 C   0  0  0  0  0  0  0  0  0  0  0  0
  -48.3192   56.8014   69.4481 C   0  0  0  0  0  0  0  0  0  0  0  0
  -34.5490   65.0650   59.3317 O   0  5  0  0  0  0  0  0  0  0  0  0
  -49.1883   57.6061   70.4122 C   0  0  0  0  0  0  0  0  0  0  0  0
  -35.6260   63.2046   60.4511 O   0  0  0  0  0  0  0  0  0  0  0  0
  -50.6634   57.7193   69.9793 C   0  0  0  0  0  0  0  0  0  0  0  0
  -51.5609   58.5376   70.9200 C   0  0  0  0  0  0  0  0  0  0  0  0
  -51.0668   59.9827   71.0324 C   0  0  0  0  0  0  0  0  0  0  0  0
  -51.0345   60.7872   69.7451 C   0  0  0  0  0  0  0  0  0  0  0  0
  -41.7615   60.6565   63.6107 C   0  0  0  0  0  0  0  0  0  0  0  0
  -42.5847   60.1680   62.4559 C   0  0  0  0  0  0  0  0  0  0  0  0
  -42.6099   58.6428   62.5563 C   0  0  0  0  0  0  0  0  0  0  0  0
  -43.4180   58.0574   61.4007 C   0  0  0  0  0  0  0  0  0  0  0  0
  -43.5460   56.5535   61.3755 C   0  0  0  0  0  0  0  0  0  0  0  0
  -44.2507   56.1295   62.6599 C   0  0  0  0  0  0  0  0  0  0  0  0
  -44.4279   54.6088   62.7646 C   0  0  0  0  0  0  0  0  0  0  0  0
  -45.1515   54.1431   64.0414 C   0  0  0  0  0  0  0  0  0  0  0  0
  -44.4206   54.5669   65.3343 C   0  0  0  0  0  0  0  0  0  0  0  0
  -45.1729   54.0637   66.5696 C   0  0  0  0  0  0  0  0  0  0  0  0
  -46.6064   54.5638   66.6997 C   0  0  0  0  0  0  0  0  0  0  0  0
  -47.2886   54.0407   67.9552 C   0  0  0  0  0  0  0  0  0  0  0  0
  -47.3881   52.5186   68.0803 C   0  0  0  0  0  0  0  0  0  0  0  0
  -48.1103   52.1944   69.3810 C   0  0  0  0  0  0  0  0  0  0  0  0
  -48.3249   50.7344   69.7517 C   0  0  0  0  0  0  0  0  0  0  0  0
  -49.0830   50.6108   71.0829 C   0  0  0  0  0  0  0  0  0  0  0  0
  -49.3298   49.1629   71.5452 C   0  0  0  0  0  0  0  0  0  0  0  0
  -50.0993   49.0718   72.8609 C   0  0  0  0  0  0  0  0  0  0  0  0
  -38.5707   64.2916   63.8868 C   0  0  2  0  0  0  0  0  0  0  0  0
  -37.8007   64.3171   62.5587 C   0  0  1  0  0  0  0  0  0  0  0  0
  -36.9714   65.6028   62.3469 C   0  0  2  0  0  0  0  0  0  0  0  0
  -37.9542   66.7410   62.3427 C   0  0  2  0  0  0  0  0  0  0  0  0
  -38.7875   66.7050   63.6110 C   0  0  1  0  0  0  0  0  0  0  0  0
  -39.7042   67.9085   63.4028 C   0  0  0  0  0  0  0  0  0  0  0  0
  -35.0951   64.5857   60.6304 S   0  0  0  0  0  0  0  0  0  0  0  0
  -40.2280   59.6342   62.8875 H   0  0  0  0  0  0  0  0  0  0  0  0
  -37.8608   61.8607   65.0594 H   0  0  0  0  0  0  0  0  0  0  0  0
  -38.1940   61.6005   63.3091 H   0  0  0  0  0  0  0  0  0  0  0  0
  -38.6677   59.8099   64.6092 H   0  0  0  0  0  0  0  0  0  0  0  0
  -38.8837   61.7234   66.7113 H   0  0  0  0  0  0  0  0  0  0  0  0
  -41.0317   61.2430   65.9299 H   0  0  0  0  0  0  0  0  0  0  0  0
  -40.3128   58.4462   66.6402 H   0  0  0  0  0  0  0  0  0  0  0  0
  -42.6561   59.5355   65.1904 H   0  0  0  0  0  0  0  0  0  0  0  0
  -37.4286   62.4154   62.7369 H   0  0  0  0  0  0  0  0  0  0  0  0
  -42.0019   56.7277   65.5037 H   0  0  0  0  0  0  0  0  0  0  0  0
  -43.6393   57.4232   65.5614 H   0  0  0  0  0  0  0  0  0  0  0  0
  -41.7904   57.1450   67.8863 H   0  0  0  0  0  0  0  0  0  0  0  0
  -43.2094   56.1204   67.4945 H   0  0  0  0  0  0  0  0  0  0  0  0
  -33.6315   65.4279   61.7634 H   0  0  0  0  0  0  0  0  0  0  0  0
  -43.3372   59.0137   68.2262 H   0  0  0  0  0  0  0  0  0  0  0  0
  -43.6959   57.6678   69.2969 H   0  0  0  0  0  0  0  0  0  0  0  0
  -38.2346   66.7105   60.3894 H   0  0  0  0  0  0  0  0  0  0  0  0
  -45.4842   56.9407   67.8052 H   0  0  0  0  0  0  0  0  0  0  0  0
  -45.0998   58.3267   66.7385 H   0  0  0  0  0  0  0  0  0  0  0  0
  -45.8362   59.8654   68.4122 H   0  0  0  0  0  0  0  0  0  0  0  0
  -46.1992   58.4994   69.4978 H   0  0  0  0  0  0  0  0  0  0  0  0
  -41.1248   68.4413   62.1820 H   0  0  0  0  0  0  0  0  0  0  0  0
  -47.5956   59.0674   66.9101 H   0  0  0  0  0  0  0  0  0  0  0  0
  -48.2136   59.4019   68.5429 H   0  0  0  0  0  0  0  0  0  0  0  0
  -47.6020   56.6817   67.4474 H   0  0  0  0  0  0  0  0  0  0  0  0
  -49.2128   57.4128   67.6367 H   0  0  0  0  0  0  0  0  0  0  0  0
  -47.3305   56.7609   69.8552 H   0  0  0  0  0  0  0  0  0  0  0  0
  -48.7963   55.8478   69.3582 H   0  0  0  0  0  0  0  0  0  0  0  0
  -48.7827   58.5934   70.4870 H   0  0  0  0  0  0  0  0  0  0  0  0
  -49.1786   57.0853   71.3468 H   0  0  0  0  0  0  0  0  0  0  0  0
  -35.9843   62.8840   61.2936 H   0  0  0  0  0  0  0  0  0  0  0  0
  -51.0663   56.7301   69.9151 H   0  0  0  0  0  0  0  0  0  0  0  0
  -50.6592   58.2410   69.0451 H   0  0  0  0  0  0  0  0  0  0  0  0
  -51.5514   58.0882   71.8911 H   0  0  0  0  0  0  0  0  0  0  0  0
  -52.5535   58.5472   70.5206 H   0  0  0  0  0  0  0  0  0  0  0  0
  -50.0718   59.9569   71.4252 H   0  0  0  0  0  0  0  0  0  0  0  0
  -51.7781   60.4783   71.6595 H   0  0  0  0  0  0  0  0  0  0  0  0
  -50.3372   60.3442   69.0650 H   0  0  0  0  0  0  0  0  0  0  0  0
  -50.7345   61.7916   69.9596 H   0  0  0  0  0  0  0  0  0  0  0  0
  -52.0091   60.7927   69.3034 H   0  0  0  0  0  0  0  0  0  0  0  0
  -42.1401   60.4704   61.5308 H   0  0  0  0  0  0  0  0  0  0  0  0
  -43.5740   60.5745   62.4862 H   0  0  0  0  0  0  0  0  0  0  0  0
  -43.0591   58.3560   63.4841 H   0  0  0  0  0  0  0  0  0  0  0  0
  -41.6078   58.2708   62.5083 H   0  0  0  0  0  0  0  0  0  0  0  0
  -42.9502   58.3611   60.4876 H   0  0  0  0  0  0  0  0  0  0  0  0
  -44.4133   58.4287   61.5285 H   0  0  0  0  0  0  0  0  0  0  0  0
  -42.5756   56.1055   61.3268 H   0  0  0  0  0  0  0  0  0  0  0  0
  -44.1040   56.2381   60.5188 H   0  0  0  0  0  0  0  0  0  0  0  0
  -45.2165   56.5892   62.6881 H   0  0  0  0  0  0  0  0  0  0  0  0
  -43.6397   56.4407   63.4813 H   0  0  0  0  0  0  0  0  0  0  0  0
  -43.4586   54.1560   62.7445 H   0  0  0  0  0  0  0  0  0  0  0  0
  -45.0412   54.3135   61.9391 H   0  0  0  0  0  0  0  0  0  0  0  0
  -45.2227   53.0756   64.0235 H   0  0  0  0  0  0  0  0  0  0  0  0
  -46.1161   54.6061   64.0511 H   0  0  0  0  0  0  0  0  0  0  0  0
  -44.3603   55.6346   65.3702 H   0  0  0  0  0  0  0  0  0  0  0  0
  -43.4393   54.1402   65.3310 H   0  0  0  0  0  0  0  0  0  0  0  0
  -44.6320   54.3773   67.4380 H   0  0  0  0  0  0  0  0  0  0  0  0
  -45.2355   53.0004   66.4685 H   0  0  0  0  0  0  0  0  0  0  0  0
  -47.1629   54.2396   65.8452 H   0  0  0  0  0  0  0  0  0  0  0  0
  -46.5762   55.6314   66.7642 H   0  0  0  0  0  0  0  0  0  0  0  0
  -48.2824   54.4366   67.9768 H   0  0  0  0  0  0  0  0  0  0  0  0
  -46.6731   54.3575   68.7711 H   0  0  0  0  0  0  0  0  0  0  0  0
  -46.4071   52.0915   68.0945 H   0  0  0  0  0  0  0  0  0  0  0  0
  -47.9254   52.1137   67.2483 H   0  0  0  0  0  0  0  0  0  0  0  0
  -49.0764   52.6513   69.3275 H   0  0  0  0  0  0  0  0  0  0  0  0
  -47.4543   52.5626   70.1419 H   0  0  0  0  0  0  0  0  0  0  0  0
  -47.3737   50.2533   69.8446 H   0  0  0  0  0  0  0  0  0  0  0  0
  -48.9064   50.2691   68.9834 H   0  0  0  0  0  0  0  0  0  0  0  0
  -50.0319   51.0929   70.9731 H   0  0  0  0  0  0  0  0  0  0  0  0
  -48.4656   51.0671   71.8282 H   0  0  0  0  0  0  0  0  0  0  0  0
  -48.3830   48.6806   71.6714 H   0  0  0  0  0  0  0  0  0  0  0  0
  -49.9273   48.6882   70.7951 H   0  0  0  0  0  0  0  0  0  0  0  0
  -49.5317   49.5377   73.6391 H   0  0  0  0  0  0  0  0  0  0  0  0
  -50.2649   48.0437   73.1068 H   0  0  0  0  0  0  0  0  0  0  0  0
  -51.0407   49.5701   72.7588 H   0  0  0  0  0  0  0  0  0  0  0  0
  -37.8613   64.3371   64.6865 H   0  0  0  0  0  0  0  0  0  0  0  0
  -38.5037   64.2763   61.7531 H   0  0  0  0  0  0  0  0  0  0  0  0
  -36.2362   65.6172   63.1242 H   0  0  0  0  0  0  0  0  0  0  0  0
  -37.4139   67.6641   62.3117 H   0  0  0  0  0  0  0  0  0  0  0  0
  -38.2128   66.7722   64.5111 H   0  0  0  0  0  0  0  0  0  0  0  0
  -40.2958   68.0614   64.2812 H   0  0  0  0  0  0  0  0  0  0  0  0
  -39.1105   68.7786   63.2144 H   0  0  0  0  0  0  0  0  0  0  0  0
  1  4  1  0  0  0  0
  1 31  1  0  0  0  0
  1 56  1  0  0  0  0
  2  3  1  0  0  0  0
  2  4  1  0  0  0  0
  2 57  1  0  0  0  0
  2 58  1  0  0  0  0
  3 49  1  0  0  0  0
  4  6  1  0  0  0  0
  4 59  1  1  0  0  0
  5  6  1  0  0  0  0
  5 60  1  0  0  0  0
  6  8  1  0  0  0  0
  6 61  1  6  0  0  0
  7 31  2  0  0  0  0
  8  9  2  0  0  0  0
  8 62  1  0  0  0  0
  9 11  1  0  0  0  0
  9 63  1  0  0  0  0
 10 50  1  0  0  0  0
 10 64  1  0  0  0  0
 11 13  1  0  0  0  0
 11 65  1  0  0  0  0
 11 66  1  0  0  0  0
 12 51  1  0  0  0  0
 12 55  1  0  0  0  0
 13 15  1  0  0  0  0
 13 67  1  0  0  0  0
 13 68  1  0  0  0  0
 14 55  1  0  0  0  0
 14 69  1  0  0  0  0
 15 17  1  0  0  0  0
 15 70  1  0  0  0  0
 15 71  1  0  0  0  0
 16 52  1  0  0  0  0
 16 72  1  0  0  0  0
 17 19  1  0  0  0  0
 17 73  1  0  0  0  0
 17 74  1  0  0  0  0
 18 49  1  0  0  0  0
 18 53  1  0  0  0  0
 19 21  1  0  0  0  0
 19 75  1  0  0  0  0
 19 76  1  0  0  0  0
 20 54  1  0  0  0  0
 20 77  1  0  0  0  0
 21 22  1  0  0  0  0
 21 78  1  0  0  0  0
 21 79  1  0  0  0  0
 22 23  1  0  0  0  0
 22 80  1  0  0  0  0
 22 81  1  0  0  0  0
 23 25  1  0  0  0  0
 23 82  1  0  0  0  0
 23 83  1  0  0  0  0
 24 55  1  0  0  0  0
 25 27  1  0  0  0  0
 25 84  1  0  0  0  0
 25 85  1  0  0  0  0
 26 55  1  0  0  0  0
 26 86  1  0  0  0  0
 27 28  1  0  0  0  0
 27 87  1  0  0  0  0
 27 88  1  0  0  0  0
 28 29  1  0  0  0  0
 28 89  1  0  0  0  0
 28 90  1  0  0  0  0
 29 30  1  0  0  0  0
 29 91  1  0  0  0  0
 29 92  1  0  0  0  0
 30 93  1  0  0  0  0
 30 94  1  0  0  0  0
 30 95  1  0  0  0  0
 31 32  1  0  0  0  0
 32 33  1  0  0  0  0
 32 96  1  0  0  0  0
 32 97  1  0  0  0  0
 33 34  1  0  0  0  0
 33 98  1  0  0  0  0
 33 99  1  0  0  0  0
 34 35  1  0  0  0  0
 34100  1  0  0  0  0
 34101  1  0  0  0  0
 35 36  1  0  0  0  0
 35102  1  0  0  0  0
 35103  1  0  0  0  0
 36 37  1  0  0  0  0
 36104  1  0  0  0  0
 36105  1  0  0  0  0
 37 38  1  0  0  0  0
 37106  1  0  0  0  0
 37107  1  0  0  0  0
 38 39  1  0  0  0  0
 38108  1  0  0  0  0
 38109  1  0  0  0  0
 39 40  1  0  0  0  0
 39110  1  0  0  0  0
 39111  1  0  0  0  0
 40 41  1  0  0  0  0
 40112  1  0  0  0  0
 40113  1  0  0  0  0
 41 42  1  0  0  0  0
 41114  1  0  0  0  0
 41115  1  0  0  0  0
 42 43  1  0  0  0  0
 42116  1  0  0  0  0
 42117  1  0  0  0  0
 43 44  1  0  0  0  0
 43118  1  0  0  0  0
 43119  1  0  0  0  0
 44 45  1  0  0  0  0
 44120  1  0  0  0  0
 44121  1  0  0  0  0
 45 46  1  0  0  0  0
 45122  1  0  0  0  0
 45123  1  0  0  0  0
 46 47  1  0  0  0  0
 46124  1  0  0  0  0
 46125  1  0  0  0  0
 47 48  1  0  0  0  0
 47126  1  0  0  0  0
 47127  1  0  0  0  0
 48128  1  0  0  0  0
 48129  1  0  0  0  0
 48130  1  0  0  0  0
 49 50  1  0  0  0  0
 49131  1  1  0  0  0
 50 51  1  0  0  0  0
 50132  1  6  0  0  0
 51 52  1  0  0  0  0
 51133  1  1  0  0  0
 52 53  1  0  0  0  0
 52134  1  6  0  0  0
 53 54  1  0  0  0  0
 53135  1  1  0  0  0
 54136  1  0  0  0  0
 54137  1  0  0  0  0
M  CHG  1  24  -1
M  END
$$$$