/media/chris/experiments/cd1a-new-docking/inputs/ligands/1onq_ligand.pdb
 OpenBabel06222310383D

137137  0  0  1  0  0  0  0  0999 V2000
  -40.4920   60.2280   63.6270 N   0  0  0  0  0  0  0  0  0  0  0  0
  -38.5950   61.7730   64.2860 C   0  0  0  0  0  0  0  0  0  0  0  0
  -37.5441   62.0867   65.2349 O   0  0  0  0  0  0  0  0  0  0  0  0
  -39.4590   60.5300   64.5980 C   0  0  1  0  0  0  0  0  0  0  0  0
  -40.7577   59.2290   66.0180 O   0  0  0  0  0  0  0  0  0  0  0  0
  -40.2280   60.5370   65.9080 C   0  0  2  0  0  0  0  0  0  0  0  0
  -41.4675   58.3885   64.5282 O   0  0  0  0  0  0  0  0  0  0  0  0
  -41.3266   61.6007   65.8452 C   0  0  0  0  0  0  0  0  0  0  0  0
  -42.4907   61.4906   66.5078 C   0  0  0  0  0  0  0  0  0  0  0  0
  -34.8829   62.7993   66.0015 O   0  0  0  0  0  0  0  0  0  0  0  0
  -43.5385   62.5962   66.3929 C   0  0  0  0  0  0  0  0  0  0  0  0
  -33.1821   60.9883   67.6133 O   0  0  0  0  0  0  0  0  0  0  0  0
  -44.9849   62.0984   66.5283 C   0  0  0  0  0  0  0  0  0  0  0  0
  -32.2232   58.7100   68.3924 O   0  0  0  0  0  0  0  0  0  0  0  0
  -45.4280   61.0481   65.4931 C   0  0  0  0  0  0  0  0  0  0  0  0
  -35.2780   59.4877   68.5068 O   0  0  0  0  0  0  0  0  0  0  0  0
  -45.3000   61.6062   64.0552 C   0  0  0  0  0  0  0  0  0  0  0  0
  -36.9441   59.8674   66.0098 O   0  0  0  0  0  0  0  0  0  0  0  0
  -46.1315   62.8809   63.7636 C   0  0  0  0  0  0  0  0  0  0  0  0
  -35.2824   56.7380   67.1203 O   0  0  0  0  0  0  0  0  0  0  0  0
  -47.6544   62.7047   63.9698 C   0  0  0  0  0  0  0  0  0  0  0  0
  -48.4711   63.9777   63.6590 C   0  0  0  0  0  0  0  0  0  0  0  0
  -49.9797   63.8128   63.8785 C   0  0  0  0  0  0  0  0  0  0  0  0
  -31.0687   60.7605   68.9854 O   0  5  0  0  0  0  0  0  0  0  0  0
  -50.8406   65.0361   63.5705 C   0  0  0  0  0  0  0  0  0  0  0  0
  -30.9418   59.9004   66.7230 O   0  0  0  0  0  0  0  0  0  0  0  0
  -52.3458   64.8220   63.8242 C   0  0  0  0  0  0  0  0  0  0  0  0
  -52.9912   63.6865   63.0154 C   0  0  0  0  0  0  0  0  0  0  0  0
  -52.3373   62.3402   63.3394 C   0  0  0  0  0  0  0  0  0  0  0  0
  -52.8733   61.1320   62.5921 C   0  0  0  0  0  0  0  0  0  0  0  0
  -41.3839   59.2282   63.6532 C   0  0  0  0  0  0  0  0  0  0  0  0
  -42.3351   59.1918   62.4940 C   0  0  0  0  0  0  0  0  0  0  0  0
  -43.7400   59.3243   63.0820 C   0  0  0  0  0  0  0  0  0  0  0  0
  -44.7795   59.2788   61.9647 C   0  0  0  0  0  0  0  0  0  0  0  0
  -44.6611   60.3467   60.9045 C   0  0  0  0  0  0  0  0  0  0  0  0
  -45.7933   60.1320   59.9056 C   0  0  0  0  0  0  0  0  0  0  0  0
  -45.7453   58.7486   59.2432 C   0  0  0  0  0  0  0  0  0  0  0  0
  -46.8639   58.5009   58.2147 C   0  0  0  0  0  0  0  0  0  0  0  0
  -48.2778   58.6213   58.8246 C   0  0  0  0  0  0  0  0  0  0  0  0
  -48.5055   60.0275   59.3866 C   0  0  0  0  0  0  0  0  0  0  0  0
  -49.8685   60.2519   60.0300 C   0  0  0  0  0  0  0  0  0  0  0  0
  -50.0342   61.6719   60.5510 C   0  0  0  0  0  0  0  0  0  0  0  0
  -49.9322   62.7860   59.5067 C   0  0  0  0  0  0  0  0  0  0  0  0
  -51.0355   62.5765   58.4783 C   0  0  0  0  0  0  0  0  0  0  0  0
  -52.4833   62.6072   58.9453 C   0  0  0  0  0  0  0  0  0  0  0  0
  -53.4449   62.3601   57.7721 C   0  0  0  0  0  0  0  0  0  0  0  0
  -54.9368   62.3909   58.1519 C   0  0  0  0  0  0  0  0  0  0  0  0
  -55.3859   63.7320   58.7274 C   0  0  0  0  0  0  0  0  0  0  0  0
  -36.4503   61.1334   65.5086 C   0  0  2  0  0  0  0  0  0  0  0  0
  -35.3818   61.5997   66.5077 C   0  0  1  0  0  0  0  0  0  0  0  0
  -34.2046   60.6120   66.6632 C   0  0  2  0  0  0  0  0  0  0  0  0
  -34.7978   59.3281   67.1741 C   0  0  2  0  0  0  0  0  0  0  0  0
  -35.9120   58.8730   66.2490 C   0  0  1  0  0  0  0  0  0  0  0  0
  -36.3724   57.5915   66.9404 C   0  0  0  0  0  0  0  0  0  0  0  0
  -31.8278   60.0664   67.9100 S   0  0  0  0  0  0  0  0  0  0  0  0
  -40.5449   60.8326   62.8518 H   0  0  0  0  0  0  0  0  0  0  0  0
  -38.1357   61.6183   63.3320 H   0  0  0  0  0  0  0  0  0  0  0  0
  -39.2690   62.6030   64.3261 H   0  0  0  0  0  0  0  0  0  0  0  0
  -38.6677   59.8099   64.6092 H   0  0  0  0  0  0  0  0  0  0  0  0
  -40.0308   58.5878   66.0547 H   0  0  0  0  0  0  0  0  0  0  0  0
  -39.6247   60.7776   66.7583 H   0  0  0  0  0  0  0  0  0  0  0  0
  -41.1662   62.4408   65.2677 H   0  0  0  0  0  0  0  0  0  0  0  0
  -42.6763   60.6610   67.0928 H   0  0  0  0  0  0  0  0  0  0  0  0
  -35.6096   63.4332   65.8970 H   0  0  0  0  0  0  0  0  0  0  0  0
  -43.4313   63.0640   65.4366 H   0  0  0  0  0  0  0  0  0  0  0  0
  -43.3657   63.2735   67.2030 H   0  0  0  0  0  0  0  0  0  0  0  0
  -45.6338   62.9443   66.4373 H   0  0  0  0  0  0  0  0  0  0  0  0
  -45.0385   61.6116   67.4797 H   0  0  0  0  0  0  0  0  0  0  0  0
  -32.8013   58.7979   69.1663 H   0  0  0  0  0  0  0  0  0  0  0  0
  -46.4482   60.7829   65.6769 H   0  0  0  0  0  0  0  0  0  0  0  0
  -44.7975   60.1885   65.5849 H   0  0  0  0  0  0  0  0  0  0  0  0
  -34.5511   59.7783   69.0797 H   0  0  0  0  0  0  0  0  0  0  0  0
  -45.6154   60.8428   63.3749 H   0  0  0  0  0  0  0  0  0  0  0  0
  -44.2746   61.8881   63.9372 H   0  0  0  0  0  0  0  0  0  0  0  0
  -45.9614   63.1674   62.7468 H   0  0  0  0  0  0  0  0  0  0  0  0
  -45.8103   63.6245   64.4627 H   0  0  0  0  0  0  0  0  0  0  0  0
  -35.5774   55.9250   67.5595 H   0  0  0  0  0  0  0  0  0  0  0  0
  -47.8284   62.4317   64.9897 H   0  0  0  0  0  0  0  0  0  0  0  0
  -47.9786   61.9488   63.2855 H   0  0  0  0  0  0  0  0  0  0  0  0
  -48.3059   64.2433   62.6357 H   0  0  0  0  0  0  0  0  0  0  0  0
  -48.1380   64.7355   64.3371 H   0  0  0  0  0  0  0  0  0  0  0  0
  -50.1344   63.5542   64.9052 H   0  0  0  0  0  0  0  0  0  0  0  0
  -50.2907   63.0601   63.1846 H   0  0  0  0  0  0  0  0  0  0  0  0
  -50.7058   65.2918   62.5403 H   0  0  0  0  0  0  0  0  0  0  0  0
  -50.5221   65.8140   64.2326 H   0  0  0  0  0  0  0  0  0  0  0  0
  -31.4291   59.4484   66.0165 H   0  0  0  0  0  0  0  0  0  0  0  0
  -52.8549   65.7315   63.5819 H   0  0  0  0  0  0  0  0  0  0  0  0
  -52.4364   64.5420   64.8529 H   0  0  0  0  0  0  0  0  0  0  0  0
  -52.8737   63.8901   61.9715 H   0  0  0  0  0  0  0  0  0  0  0  0
  -54.0283   63.6320   63.2728 H   0  0  0  0  0  0  0  0  0  0  0  0
  -52.4662   62.1592   64.3861 H   0  0  0  0  0  0  0  0  0  0  0  0
  -51.3179   62.4373   63.0288 H   0  0  0  0  0  0  0  0  0  0  0  0
  -53.8979   60.9744   62.8572 H   0  0  0  0  0  0  0  0  0  0  0  0
  -52.3001   60.2673   62.8542 H   0  0  0  0  0  0  0  0  0  0  0  0
  -52.7997   61.3028   61.5384 H   0  0  0  0  0  0  0  0  0  0  0  0
  -42.2406   58.2653   61.9671 H   0  0  0  0  0  0  0  0  0  0  0  0
  -42.1300   59.9798   61.7998 H   0  0  0  0  0  0  0  0  0  0  0  0
  -43.8199   60.2556   63.6028 H   0  0  0  0  0  0  0  0  0  0  0  0
  -43.9156   58.5142   63.7587 H   0  0  0  0  0  0  0  0  0  0  0  0
  -45.7465   59.3695   62.4137 H   0  0  0  0  0  0  0  0  0  0  0  0
  -44.6165   58.3507   61.4577 H   0  0  0  0  0  0  0  0  0  0  0  0
  -43.7165   60.2653   60.4085 H   0  0  0  0  0  0  0  0  0  0  0  0
  -44.7263   61.3206   61.3430 H   0  0  0  0  0  0  0  0  0  0  0  0
  -45.7231   60.8792   59.1429 H   0  0  0  0  0  0  0  0  0  0  0  0
  -46.7158   60.2006   60.4435 H   0  0  0  0  0  0  0  0  0  0  0  0
  -45.8246   58.0066   60.0101 H   0  0  0  0  0  0  0  0  0  0  0  0
  -44.8197   58.6960   58.7089 H   0  0  0  0  0  0  0  0  0  0  0  0
  -46.7475   57.5156   57.8141 H   0  0  0  0  0  0  0  0  0  0  0  0
  -46.7758   59.2514   57.4571 H   0  0  0  0  0  0  0  0  0  0  0  0
  -48.3821   57.9063   59.6138 H   0  0  0  0  0  0  0  0  0  0  0  0
  -49.0007   58.4354   58.0580 H   0  0  0  0  0  0  0  0  0  0  0  0
  -48.3984   60.7269   58.5839 H   0  0  0  0  0  0  0  0  0  0  0  0
  -47.7828   60.1588   60.1646 H   0  0  0  0  0  0  0  0  0  0  0  0
  -49.9797   59.5704   60.8474 H   0  0  0  0  0  0  0  0  0  0  0  0
  -50.6150   60.0888   59.2810 H   0  0  0  0  0  0  0  0  0  0  0  0
  -49.2752   61.8416   61.2858 H   0  0  0  0  0  0  0  0  0  0  0  0
  -51.0326   61.7245   60.9323 H   0  0  0  0  0  0  0  0  0  0  0  0
  -48.9769   62.7459   59.0264 H   0  0  0  0  0  0  0  0  0  0  0  0
  -50.0399   63.7422   59.9747 H   0  0  0  0  0  0  0  0  0  0  0  0
  -50.8696   61.6200   58.0284 H   0  0  0  0  0  0  0  0  0  0  0  0
  -50.9526   63.4246   57.8311 H   0  0  0  0  0  0  0  0  0  0  0  0
  -52.6927   63.5650   59.3738 H   0  0  0  0  0  0  0  0  0  0  0  0
  -52.6243   61.8335   59.6709 H   0  0  0  0  0  0  0  0  0  0  0  0
  -53.2255   61.3986   57.3570 H   0  0  0  0  0  0  0  0  0  0  0  0
  -53.2908   63.1603   57.0787 H   0  0  0  0  0  0  0  0  0  0  0  0
  -55.1170   61.6303   58.8826 H   0  0  0  0  0  0  0  0  0  0  0  0
  -55.4957   62.2281   57.2541 H   0  0  0  0  0  0  0  0  0  0  0  0
  -54.8471   63.9312   59.6301 H   0  0  0  0  0  0  0  0  0  0  0  0
  -56.4343   63.6964   58.9383 H   0  0  0  0  0  0  0  0  0  0  0  0
  -55.1911   64.5082   58.0171 H   0  0  0  0  0  0  0  0  0  0  0  0
  -35.9925   61.0440   64.5457 H   0  0  0  0  0  0  0  0  0  0  0  0
  -35.8309   61.6875   67.4750 H   0  0  0  0  0  0  0  0  0  0  0  0
  -33.7257   60.5630   65.7076 H   0  0  0  0  0  0  0  0  0  0  0  0
  -34.0355   58.5774   67.1903 H   0  0  0  0  0  0  0  0  0  0  0  0
  -35.5992   58.7098   65.2389 H   0  0  0  0  0  0  0  0  0  0  0  0
  -36.7961   57.8333   67.8927 H   0  0  0  0  0  0  0  0  0  0  0  0
  -37.1076   57.1054   66.3338 H   0  0  0  0  0  0  0  0  0  0  0  0
  1  4  1  0  0  0  0
  1 31  1  0  0  0  0
  1 56  1  0  0  0  0
  2  3  1  0  0  0  0
  2  4  1  0  0  0  0
  2 57  1  0  0  0  0
  2 58  1  0  0  0  0
  3 49  1  0  0  0  0
  4  6  1  0  0  0  0
  4 59  1  1  0  0  0
  5  6  1  0  0  0  0
  5 60  1  0  0  0  0
  6  8  1  0  0  0  0
  6 61  1  1  0  0  0
  7 31  2  0  0  0  0
  8  9  2  0  0  0  0
  8 62  1  0  0  0  0
  9 11  1  0  0  0  0
  9 63  1  0  0  0  0
 10 50  1  0  0  0  0
 10 64  1  0  0  0  0
 11 13  1  0  0  0  0
 11 65  1  0  0  0  0
 11 66  1  0  0  0  0
 12 51  1  0  0  0  0
 12 55  1  0  0  0  0
 13 15  1  0  0  0  0
 13 67  1  0  0  0  0
 13 68  1  0  0  0  0
 14 55  1  0  0  0  0
 14 69  1  0  0  0  0
 15 17  1  0  0  0  0
 15 70  1  0  0  0  0
 15 71  1  0  0  0  0
 16 52  1  0  0  0  0
 16 72  1  0  0  0  0
 17 19  1  0  0  0  0
 17 73  1  0  0  0  0
 17 74  1  0  0  0  0
 18 49  1  0  0  0  0
 18 53  1  0  0  0  0
 19 21  1  0  0  0  0
 19 75  1  0  0  0  0
 19 76  1  0  0  0  0
 20 54  1  0  0  0  0
 20 77  1  0  0  0  0
 21 22  1  0  0  0  0
 21 78  1  0  0  0  0
 21 79  1  0  0  0  0
 22 23  1  0  0  0  0
 22 80  1  0  0  0  0
 22 81  1  0  0  0  0
 23 25  1  0  0  0  0
 23 82  1  0  0  0  0
 23 83  1  0  0  0  0
 24 55  1  0  0  0  0
 25 27  1  0  0  0  0
 25 84  1  0  0  0  0
 25 85  1  0  0  0  0
 26 55  1  0  0  0  0
 26 86  1  0  0  0  0
 27 28  1  0  0  0  0
 27 87  1  0  0  0  0
 27 88  1  0  0  0  0
 28 29  1  0  0  0  0
 28 89  1  0  0  0  0
 28 90  1  0  0  0  0
 29 30  1  0  0  0  0
 29 91  1  0  0  0  0
 29 92  1  0  0  0  0
 30 93  1  0  0  0  0
 30 94  1  0  0  0  0
 30 95  1  0  0  0  0
 31 32  1  0  0  0  0
 32 33  1  0  0  0  0
 32 96  1  0  0  0  0
 32 97  1  0  0  0  0
 33 34  1  0  0  0  0
 33 98  1  0  0  0  0
 33 99  1  0  0  0  0
 34 35  1  0  0  0  0
 34100  1  0  0  0  0
 34101  1  0  0  0  0
 35 36  1  0  0  0  0
 35102  1  0  0  0  0
 35103  1  0  0  0  0
 36 37  1  0  0  0  0
 36104  1  0  0  0  0
 36105  1  0  0  0  0
 37 38  1  0  0  0  0
 37106  1  0  0  0  0
 37107  1  0  0  0  0
 38 39  1  0  0  0  0
 38108  1  0  0  0  0
 38109  1  0  0  0  0
 39 40  1  0  0  0  0
 39110  1  0  0  0  0
 39111  1  0  0  0  0
 40 41  1  0  0  0  0
 40112  1  0  0  0  0
 40113  1  0  0  0  0
 41 42  1  0  0  0  0
 41114  1  0  0  0  0
 41115  1  0  0  0  0
 42 43  1  0  0  0  0
 42116  1  0  0  0  0
 42117  1  0  0  0  0
 43 44  1  0  0  0  0
 43118  1  0  0  0  0
 43119  1  0  0  0  0
 44 45  1  0  0  0  0
 44120  1  0  0  0  0
 44121  1  0  0  0  0
 45 46  1  0  0  0  0
 45122  1  0  0  0  0
 45123  1  0  0  0  0
 46 47  1  0  0  0  0
 46124  1  0  0  0  0
 46125  1  0  0  0  0
 47 48  1  0  0  0  0
 47126  1  0  0  0  0
 47127  1  0  0  0  0
 48128  1  0  0  0  0
 48129  1  0  0  0  0
 48130  1  0  0  0  0
 49 50  1  0  0  0  0
 49131  1  6  0  0  0
 50 51  1  0  0  0  0
 50132  1  1  0  0  0
 51 52  1  0  0  0  0
 51133  1  6  0  0  0
 52 53  1  0  0  0  0
 52134  1  1  0  0  0
 53 54  1  0  0  0  0
 53135  1  6  0  0  0
 54136  1  0  0  0  0
 54137  1  0  0  0  0
M  CHG  1  24  -1
M  END
$$$$