/media/chris/experiments/cd1a-new-docking/inputs/ligands/1onq_ligand.pdb
 OpenBabel06222310383D

137137  0  0  1  0  0  0  0  0999 V2000
  -40.4920   60.2280   63.6270 N   0  0  0  0  0  0  0  0  0  0  0  0
  -38.5950   61.7730   64.2860 C   0  0  0  0  0  0  0  0  0  0  0  0
  -37.8612   61.7550   63.0352 O   0  0  0  0  0  0  0  0  0  0  0  0
  -39.4590   60.5300   64.5980 C   0  0  1  0  0  0  0  0  0  0  0  0
  -39.2569   60.8461   66.8904 O   0  0  0  0  0  0  0  0  0  0  0  0
  -40.2280   60.5370   65.9080 C   0  0  2  0  0  0  0  0  0  0  0  0
  -40.9980   62.2858   62.8166 O   0  0  0  0  0  0  0  0  0  0  0  0
  -40.8583   59.1606   66.1332 C   0  0  0  0  0  0  0  0  0  0  0  0
  -41.6129   58.8678   67.2060 C   0  0  0  0  0  0  0  0  0  0  0  0
  -36.4617   63.4735   64.8422 O   0  0  0  0  0  0  0  0  0  0  0  0
  -42.2065   57.4687   67.3592 C   0  0  0  0  0  0  0  0  0  0  0  0
  -33.9514   64.8423   64.0706 O   0  0  0  0  0  0  0  0  0  0  0  0
  -41.7514   56.7360   68.6297 C   0  0  0  0  0  0  0  0  0  0  0  0
  -32.3189   66.0743   62.4788 O   0  0  0  0  0  0  0  0  0  0  0  0
  -42.1162   57.4199   69.9603 C   0  0  0  0  0  0  0  0  0  0  0  0
  -33.4515   63.1747   61.9701 O   0  0  0  0  0  0  0  0  0  0  0  0
  -43.6510   57.5567   70.1049 C   0  0  0  0  0  0  0  0  0  0  0  0
  -36.3692   62.6641   61.3521 O   0  0  0  0  0  0  0  0  0  0  0  0
  -44.1341   58.2492   71.4043 C   0  0  0  0  0  0  0  0  0  0  0  0
  -33.8767   62.4184   59.8301 O   0  0  0  0  0  0  0  0  0  0  0  0
  -45.6721   58.3571   71.5305 C   0  0  0  0  0  0  0  0  0  0  0  0
  -46.3882   56.9892   71.5414 C   0  0  0  0  0  0  0  0  0  0  0  0
  -45.9717   56.0831   72.7062 C   0  0  0  0  0  0  0  0  0  0  0  0
  -31.9395   66.1488   64.8745 O   0  5  0  0  0  0  0  0  0  0  0  0
  -46.2431   56.6245   74.1082 C   0  0  0  0  0  0  0  0  0  0  0  0
  -33.7115   67.4691   63.8791 O   0  0  0  0  0  0  0  0  0  0  0  0
  -45.7901   55.6827   75.2413 C   0  0  0  0  0  0  0  0  0  0  0  0
  -46.0648   56.1915   76.6646 C   0  0  0  0  0  0  0  0  0  0  0  0
  -45.5627   55.1932   77.7118 C   0  0  0  0  0  0  0  0  0  0  0  0
  -46.1611   53.7988   77.6568 C   0  0  0  0  0  0  0  0  0  0  0  0
  -41.1606   61.0813   62.8393 C   0  0  0  0  0  0  0  0  0  0  0  0
  -42.1710   60.4499   61.9282 C   0  0  0  0  0  0  0  0  0  0  0  0
  -43.5248   61.0584   62.2944 C   0  0  0  0  0  0  0  0  0  0  0  0
  -43.8451   60.7741   63.7599 C   0  0  0  0  0  0  0  0  0  0  0  0
  -42.8730   61.3310   64.7715 C   0  0  0  0  0  0  0  0  0  0  0  0
  -43.3642   60.9221   66.1562 C   0  0  0  0  0  0  0  0  0  0  0  0
  -42.4640   61.4458   67.2833 C   0  0  0  0  0  0  0  0  0  0  0  0
  -42.9188   61.0384   68.6967 C   0  0  0  0  0  0  0  0  0  0  0  0
  -42.0012   61.5961   69.8068 C   0  0  0  0  0  0  0  0  0  0  0  0
  -41.9874   63.1271   69.7775 C   0  0  0  0  0  0  0  0  0  0  0  0
  -41.0966   63.7842   70.8248 C   0  0  0  0  0  0  0  0  0  0  0  0
  -39.6356   63.3882   70.6705 C   0  0  0  0  0  0  0  0  0  0  0  0
  -38.9762   63.7605   69.3406 C   0  0  0  0  0  0  0  0  0  0  0  0
  -39.0265   65.2751   69.1922 C   0  0  0  0  0  0  0  0  0  0  0  0
  -40.3835   65.9635   69.1953 C   0  0  0  0  0  0  0  0  0  0  0  0
  -40.2299   67.4824   69.0179 C   0  0  0  0  0  0  0  0  0  0  0  0
  -41.5567   68.2638   69.0264 C   0  0  0  0  0  0  0  0  0  0  0  0
  -42.5218   67.8270   67.9268 C   0  0  0  0  0  0  0  0  0  0  0  0
  -36.9920   62.8817   62.6414 C   0  0  2  0  0  0  0  0  0  0  0  0
  -35.8536   63.2281   63.6117 C   0  0  1  0  0  0  0  0  0  0  0  0
  -35.0540   64.4857   63.2063 C   0  0  2  0  0  0  0  0  0  0  0  0
  -34.4510   64.1853   61.8619 C   0  0  2  0  0  0  0  0  0  0  0  0
  -35.5409   63.7659   60.8921 C   0  0  1  0  0  0  0  0  0  0  0  0
  -34.7309   63.5033   59.6245 C   0  0  0  0  0  0  0  0  0  0  0  0
  -32.9820   66.1711   63.8128 S   0  0  0  0  0  0  0  0  0  0  0  0
  -40.7322   59.2777   63.5347 H   0  0  0  0  0  0  0  0  0  0  0  0
  -39.2437   62.6238   64.2698 H   0  0  0  0  0  0  0  0  0  0  0  0
  -37.8479   61.7974   65.0516 H   0  0  0  0  0  0  0  0  0  0  0  0
  -38.6677   59.8099   64.6092 H   0  0  0  0  0  0  0  0  0  0  0  0
  -38.8837   61.7234   66.7113 H   0  0  0  0  0  0  0  0  0  0  0  0
  -41.0317   61.2430   65.9299 H   0  0  0  0  0  0  0  0  0  0  0  0
  -40.6964   58.4237   65.4290 H   0  0  0  0  0  0  0  0  0  0  0  0
  -41.7909   59.5867   67.9248 H   0  0  0  0  0  0  0  0  0  0  0  0
  -36.9694   62.6928   65.1133 H   0  0  0  0  0  0  0  0  0  0  0  0
  -41.9160   56.8847   66.5110 H   0  0  0  0  0  0  0  0  0  0  0  0
  -43.2674   57.5874   67.4319 H   0  0  0  0  0  0  0  0  0  0  0  0
  -40.6865   56.6397   68.5904 H   0  0  0  0  0  0  0  0  0  0  0  0
  -42.2713   55.8008   68.6297 H   0  0  0  0  0  0  0  0  0  0  0  0
  -31.8380   65.2341   62.4170 H   0  0  0  0  0  0  0  0  0  0  0  0
  -41.6730   58.3934   69.9875 H   0  0  0  0  0  0  0  0  0  0  0  0
  -41.7477   56.8205   70.7665 H   0  0  0  0  0  0  0  0  0  0  0  0
  -32.7664   63.4629   62.5935 H   0  0  0  0  0  0  0  0  0  0  0  0
  -44.0747   56.5746   70.0764 H   0  0  0  0  0  0  0  0  0  0  0  0
  -43.9696   58.1843   69.2989 H   0  0  0  0  0  0  0  0  0  0  0  0
  -43.7251   59.2376   71.4300 H   0  0  0  0  0  0  0  0  0  0  0  0
  -43.8004   57.6415   72.2193 H   0  0  0  0  0  0  0  0  0  0  0  0
  -33.3634   62.2536   59.0236 H   0  0  0  0  0  0  0  0  0  0  0  0
  -46.0405   58.9253   70.7021 H   0  0  0  0  0  0  0  0  0  0  0  0
  -45.8780   58.8268   72.4695 H   0  0  0  0  0  0  0  0  0  0  0  0
  -46.1656   56.4843   70.6247 H   0  0  0  0  0  0  0  0  0  0  0  0
  -47.4337   57.1852   71.6569 H   0  0  0  0  0  0  0  0  0  0  0  0
  -44.9199   55.9053   72.6223 H   0  0  0  0  0  0  0  0  0  0  0  0
  -46.5741   55.2034   72.6160 H   0  0  0  0  0  0  0  0  0  0  0  0
  -47.2957   56.7889   74.2077 H   0  0  0  0  0  0  0  0  0  0  0  0
  -45.6746   57.5255   74.2081 H   0  0  0  0  0  0  0  0  0  0  0  0
  -34.3936   67.4922   63.1898 H   0  0  0  0  0  0  0  0  0  0  0  0
  -44.7358   55.5293   75.1425 H   0  0  0  0  0  0  0  0  0  0  0  0
  -46.3650   54.7872   75.1304 H   0  0  0  0  0  0  0  0  0  0  0  0
  -47.1185   56.3290   76.7896 H   0  0  0  0  0  0  0  0  0  0  0  0
  -45.5465   57.1176   76.8011 H   0  0  0  0  0  0  0  0  0  0  0  0
  -45.7751   55.6007   78.6781 H   0  0  0  0  0  0  0  0  0  0  0  0
  -44.5210   55.0638   77.5046 H   0  0  0  0  0  0  0  0  0  0  0  0
  -47.2109   53.8531   77.8566 H   0  0  0  0  0  0  0  0  0  0  0  0
  -45.6899   53.1793   78.3910 H   0  0  0  0  0  0  0  0  0  0  0  0
  -46.0042   53.3815   76.6841 H   0  0  0  0  0  0  0  0  0  0  0  0
  -42.1900   59.3902   62.0749 H   0  0  0  0  0  0  0  0  0  0  0  0
  -41.9312   60.6288   60.9008 H   0  0  0  0  0  0  0  0  0  0  0  0
  -44.2852   60.6294   61.6758 H   0  0  0  0  0  0  0  0  0  0  0  0
  -43.4873   62.1167   62.1417 H   0  0  0  0  0  0  0  0  0  0  0  0
  -43.8775   59.7122   63.8876 H   0  0  0  0  0  0  0  0  0  0  0  0
  -44.7747   61.2678   63.9522 H   0  0  0  0  0  0  0  0  0  0  0  0
  -42.8394   62.3978   64.6965 H   0  0  0  0  0  0  0  0  0  0  0  0
  -41.8882   60.9516   64.5949 H   0  0  0  0  0  0  0  0  0  0  0  0
  -43.3910   59.8537   66.2082 H   0  0  0  0  0  0  0  0  0  0  0  0
  -44.3353   61.3498   66.2936 H   0  0  0  0  0  0  0  0  0  0  0  0
  -42.4484   62.5144   67.2310 H   0  0  0  0  0  0  0  0  0  0  0  0
  -41.4988   61.0087   67.1335 H   0  0  0  0  0  0  0  0  0  0  0  0
  -42.9212   59.9703   68.7601 H   0  0  0  0  0  0  0  0  0  0  0  0
  -43.8951   61.4483   68.8507 H   0  0  0  0  0  0  0  0  0  0  0  0
  -41.0062   61.2327   69.6559 H   0  0  0  0  0  0  0  0  0  0  0  0
  -42.3738   61.2730   70.7564 H   0  0  0  0  0  0  0  0  0  0  0  0
  -42.9889   63.4709   69.9311 H   0  0  0  0  0  0  0  0  0  0  0  0
  -41.5838   63.4039   68.8260 H   0  0  0  0  0  0  0  0  0  0  0  0
  -41.4324   63.4885   71.7968 H   0  0  0  0  0  0  0  0  0  0  0  0
  -41.1641   64.8440   70.6938 H   0  0  0  0  0  0  0  0  0  0  0  0
  -39.5708   62.3260   70.7820 H   0  0  0  0  0  0  0  0  0  0  0  0
  -39.1066   63.9402   71.4191 H   0  0  0  0  0  0  0  0  0  0  0  0
  -39.5050   63.2996   68.5326 H   0  0  0  0  0  0  0  0  0  0  0  0
  -37.9617   63.4209   69.3232 H   0  0  0  0  0  0  0  0  0  0  0  0
  -38.5526   65.5168   68.2638 H   0  0  0  0  0  0  0  0  0  0  0  0
  -38.5476   65.6395   70.0769 H   0  0  0  0  0  0  0  0  0  0  0  0
  -40.8732   65.7676   70.1263 H   0  0  0  0  0  0  0  0  0  0  0  0
  -40.9619   65.5815   68.3802 H   0  0  0  0  0  0  0  0  0  0  0  0
  -39.7423   67.6620   68.0826 H   0  0  0  0  0  0  0  0  0  0  0  0
  -39.6659   67.8314   69.8576 H   0  0  0  0  0  0  0  0  0  0  0  0
  -41.3396   69.3032   68.8946 H   0  0  0  0  0  0  0  0  0  0  0  0
  -42.0342   68.0673   69.9636 H   0  0  0  0  0  0  0  0  0  0  0  0
  -42.0782   68.0084   66.9701 H   0  0  0  0  0  0  0  0  0  0  0  0
  -43.4319   68.3836   68.0092 H   0  0  0  0  0  0  0  0  0  0  0  0
  -42.7317   66.7829   68.0304 H   0  0  0  0  0  0  0  0  0  0  0  0
  -37.6838   63.6979   62.6313 H   0  0  0  0  0  0  0  0  0  0  0  0
  -35.1546   62.4180   63.6243 H   0  0  0  0  0  0  0  0  0  0  0  0
  -35.7427   65.3038   63.2423 H   0  0  0  0  0  0  0  0  0  0  0  0
  -33.9800   65.0706   61.4887 H   0  0  0  0  0  0  0  0  0  0  0  0
  -36.3046   64.5020   60.7512 H   0  0  0  0  0  0  0  0  0  0  0  0
  -35.3964   63.2841   58.8158 H   0  0  0  0  0  0  0  0  0  0  0  0
  -34.1517   64.3711   59.3871 H   0  0  0  0  0  0  0  0  0  0  0  0
  1  4  1  0  0  0  0
  1 31  1  0  0  0  0
  1 56  1  0  0  0  0
  2  3  1  0  0  0  0
  2  4  1  0  0  0  0
  2 57  1  0  0  0  0
  2 58  1  0  0  0  0
  3 49  1  0  0  0  0
  4  6  1  0  0  0  0
  4 59  1  1  0  0  0
  5  6  1  0  0  0  0
  5 60  1  0  0  0  0
  6  8  1  0  0  0  0
  6 61  1  6  0  0  0
  7 31  2  0  0  0  0
  8  9  2  0  0  0  0
  8 62  1  0  0  0  0
  9 11  1  0  0  0  0
  9 63  1  0  0  0  0
 10 50  1  0  0  0  0
 10 64  1  0  0  0  0
 11 13  1  0  0  0  0
 11 65  1  0  0  0  0
 11 66  1  0  0  0  0
 12 51  1  0  0  0  0
 12 55  1  0  0  0  0
 13 15  1  0  0  0  0
 13 67  1  0  0  0  0
 13 68  1  0  0  0  0
 14 55  1  0  0  0  0
 14 69  1  0  0  0  0
 15 17  1  0  0  0  0
 15 70  1  0  0  0  0
 15 71  1  0  0  0  0
 16 52  1  0  0  0  0
 16 72  1  0  0  0  0
 17 19  1  0  0  0  0
 17 73  1  0  0  0  0
 17 74  1  0  0  0  0
 18 49  1  0  0  0  0
 18 53  1  0  0  0  0
 19 21  1  0  0  0  0
 19 75  1  0  0  0  0
 19 76  1  0  0  0  0
 20 54  1  0  0  0  0
 20 77  1  0  0  0  0
 21 22  1  0  0  0  0
 21 78  1  0  0  0  0
 21 79  1  0  0  0  0
 22 23  1  0  0  0  0
 22 80  1  0  0  0  0
 22 81  1  0  0  0  0
 23 25  1  0  0  0  0
 23 82  1  0  0  0  0
 23 83  1  0  0  0  0
 24 55  1  0  0  0  0
 25 27  1  0  0  0  0
 25 84  1  0  0  0  0
 25 85  1  0  0  0  0
 26 55  1  0  0  0  0
 26 86  1  0  0  0  0
 27 28  1  0  0  0  0
 27 87  1  0  0  0  0
 27 88  1  0  0  0  0
 28 29  1  0  0  0  0
 28 89  1  0  0  0  0
 28 90  1  0  0  0  0
 29 30  1  0  0  0  0
 29 91  1  0  0  0  0
 29 92  1  0  0  0  0
 30 93  1  0  0  0  0
 30 94  1  0  0  0  0
 30 95  1  0  0  0  0
 31 32  1  0  0  0  0
 32 33  1  0  0  0  0
 32 96  1  0  0  0  0
 32 97  1  0  0  0  0
 33 34  1  0  0  0  0
 33 98  1  0  0  0  0
 33 99  1  0  0  0  0
 34 35  1  0  0  0  0
 34100  1  0  0  0  0
 34101  1  0  0  0  0
 35 36  1  0  0  0  0
 35102  1  0  0  0  0
 35103  1  0  0  0  0
 36 37  1  0  0  0  0
 36104  1  0  0  0  0
 36105  1  0  0  0  0
 37 38  1  0  0  0  0
 37106  1  0  0  0  0
 37107  1  0  0  0  0
 38 39  1  0  0  0  0
 38108  1  0  0  0  0
 38109  1  0  0  0  0
 39 40  1  0  0  0  0
 39110  1  0  0  0  0
 39111  1  0  0  0  0
 40 41  1  0  0  0  0
 40112  1  0  0  0  0
 40113  1  0  0  0  0
 41 42  1  0  0  0  0
 41114  1  0  0  0  0
 41115  1  0  0  0  0
 42 43  1  0  0  0  0
 42116  1  0  0  0  0
 42117  1  0  0  0  0
 43 44  1  0  0  0  0
 43118  1  0  0  0  0
 43119  1  0  0  0  0
 44 45  1  0  0  0  0
 44120  1  0  0  0  0
 44121  1  0  0  0  0
 45 46  1  0  0  0  0
 45122  1  0  0  0  0
 45123  1  0  0  0  0
 46 47  1  0  0  0  0
 46124  1  0  0  0  0
 46125  1  0  0  0  0
 47 48  1  0  0  0  0
 47126  1  0  0  0  0
 47127  1  0  0  0  0
 48128  1  0  0  0  0
 48129  1  0  0  0  0
 48130  1  0  0  0  0
 49 50  1  0  0  0  0
 49131  1  6  0  0  0
 50 51  1  0  0  0  0
 50132  1  1  0  0  0
 51 52  1  0  0  0  0
 51133  1  6  0  0  0
 52 53  1  0  0  0  0
 52134  1  6  0  0  0
 53 54  1  0  0  0  0
 53135  1  6  0  0  0
 54136  1  0  0  0  0
 54137  1  0  0  0  0
M  CHG  1  24  -1
M  END
$$$$