/media/chris/experiments/cd1a-new-docking/inputs/ligands/1onq_ligand.pdb
 OpenBabel06222310383D

137137  0  0  1  0  0  0  0  0999 V2000
  -40.4920   60.2280   63.6270 N   0  0  0  0  0  0  0  0  0  0  0  0
  -38.5950   61.7730   64.2860 C   0  0  0  0  0  0  0  0  0  0  0  0
  -39.2927   63.0412   64.1953 O   0  0  0  0  0  0  0  0  0  0  0  0
  -39.4590   60.5300   64.5980 C   0  0  1  0  0  0  0  0  0  0  0  0
  -41.2116   61.5409   65.7392 O   0  0  0  0  0  0  0  0  0  0  0  0
  -40.2280   60.5370   65.9080 C   0  0  2  0  0  0  0  0  0  0  0  0
  -40.6436   57.9696   63.7820 O   0  0  0  0  0  0  0  0  0  0  0  0
  -39.2689   60.8567   67.0571 C   0  0  0  0  0  0  0  0  0  0  0  0
  -39.4194   61.9233   67.8608 C   0  0  0  0  0  0  0  0  0  0  0  0
  -36.9245   63.2334   62.6041 O   0  0  0  0  0  0  0  0  0  0  0  0
  -38.4178   62.1745   68.9864 C   0  0  0  0  0  0  0  0  0  0  0  0
  -36.2474   65.6923   61.0988 O   0  0  0  0  0  0  0  0  0  0  0  0
  -36.9761   62.3831   68.5005 C   0  0  0  0  0  0  0  0  0  0  0  0
  -34.5230   64.9669   59.3052 O   0  0  0  0  0  0  0  0  0  0  0  0
  -36.7564   63.5829   67.5606 C   0  0  0  0  0  0  0  0  0  0  0  0
  -38.7865   66.6864   61.1867 O   0  0  0  0  0  0  0  0  0  0  0  0
  -37.1379   64.9081   68.2633 C   0  0  0  0  0  0  0  0  0  0  0  0
  -39.4547   65.4386   63.8611 O   0  0  0  0  0  0  0  0  0  0  0  0
  -36.9724   66.1855   67.4017 C   0  0  0  0  0  0  0  0  0  0  0  0
  -40.5437   67.6756   62.3121 O   0  0  0  0  0  0  0  0  0  0  0  0
  -35.5309   66.4246   66.8938 C   0  0  0  0  0  0  0  0  0  0  0  0
  -35.3781   67.7096   66.0516 C   0  0  0  0  0  0  0  0  0  0  0  0
  -35.7332   68.9928   66.8123 C   0  0  0  0  0  0  0  0  0  0  0  0
  -35.7915   63.2771   60.4988 O   0  5  0  0  0  0  0  0  0  0  0  0
  -35.6166   70.2951   66.0233 C   0  0  0  0  0  0  0  0  0  0  0  0
  -33.9724   64.4403   61.5999 O   0  0  0  0  0  0  0  0  0  0  0  0
  -36.5353   70.3626   64.7874 C   0  0  0  0  0  0  0  0  0  0  0  0
  -38.0393   70.2595   65.0832 C   0  0  0  0  0  0  0  0  0  0  0  0
  -38.3718   68.9422   65.7896 C   0  0  0  0  0  0  0  0  0  0  0  0
  -39.8337   68.7063   66.1254 C   0  0  0  0  0  0  0  0  0  0  0  0
  -40.9921   59.0290   63.2983 C   0  0  0  0  0  0  0  0  0  0  0  0
  -42.0683   59.0516   62.2538 C   0  0  0  0  0  0  0  0  0  0  0  0
  -41.5552   58.2106   61.0848 C   0  0  0  0  0  0  0  0  0  0  0  0
  -41.3002   56.7776   61.5456 C   0  0  0  0  0  0  0  0  0  0  0  0
  -40.7718   55.8279   60.4980 C   0  0  0  0  0  0  0  0  0  0  0  0
  -40.6059   54.4620   61.1558 C   0  0  0  0  0  0  0  0  0  0  0  0
  -40.0541   53.4029   60.1921 C   0  0  0  0  0  0  0  0  0  0  0  0
  -38.6626   53.7315   59.6209 C   0  0  0  0  0  0  0  0  0  0  0  0
  -38.1455   52.6541   58.6424 C   0  0  0  0  0  0  0  0  0  0  0  0
  -36.7541   53.0225   58.1198 C   0  0  0  0  0  0  0  0  0  0  0  0
  -36.1539   52.0318   57.1296 C   0  0  0  0  0  0  0  0  0  0  0  0
  -37.0031   51.8824   55.8760 C   0  0  0  0  0  0  0  0  0  0  0  0
  -37.2064   53.1532   55.0478 C   0  0  0  0  0  0  0  0  0  0  0  0
  -35.8411   53.6420   54.5834 C   0  0  0  0  0  0  0  0  0  0  0  0
  -35.0005   52.7293   53.7027 C   0  0  0  0  0  0  0  0  0  0  0  0
  -35.7281   52.4126   52.3865 C   0  0  0  0  0  0  0  0  0  0  0  0
  -36.0443   53.6450   51.5191 C   0  0  0  0  0  0  0  0  0  0  0  0
  -34.7983   54.4119   51.0823 C   0  0  0  0  0  0  0  0  0  0  0  0
  -38.5707   64.2916   63.8868 C   0  0  2  0  0  0  0  0  0  0  0  0
  -37.8007   64.3171   62.5587 C   0  0  1  0  0  0  0  0  0  0  0  0
  -36.9714   65.6028   62.3469 C   0  0  2  0  0  0  0  0  0  0  0  0
  -37.9542   66.7410   62.3427 C   0  0  2  0  0  0  0  0  0  0  0  0
  -38.7875   66.7050   63.6110 C   0  0  1  0  0  0  0  0  0  0  0  0
  -39.7042   67.9085   63.4028 C   0  0  0  0  0  0  0  0  0  0  0  0
  -35.0951   64.5857   60.6304 S   0  0  0  0  0  0  0  0  0  0  0  0
  -40.8737   60.9998   63.1496 H   0  0  0  0  0  0  0  0  0  0  0  0
  -37.8608   61.8607   65.0594 H   0  0  0  0  0  0  0  0  0  0  0  0
  -38.1940   61.6005   63.3091 H   0  0  0  0  0  0  0  0  0  0  0  0
  -38.6677   59.8099   64.6092 H   0  0  0  0  0  0  0  0  0  0  0  0
  -41.7964   61.3001   65.0038 H   0  0  0  0  0  0  0  0  0  0  0  0
  -40.6791   59.5963   66.1457 H   0  0  0  0  0  0  0  0  0  0  0  0
  -38.4702   60.2244   67.2223 H   0  0  0  0  0  0  0  0  0  0  0  0
  -40.2099   62.5712   67.7177 H   0  0  0  0  0  0  0  0  0  0  0  0
  -37.4286   62.4154   62.7369 H   0  0  0  0  0  0  0  0  0  0  0  0
  -38.4328   61.3315   69.6452 H   0  0  0  0  0  0  0  0  0  0  0  0
  -38.7163   63.0802   69.4717 H   0  0  0  0  0  0  0  0  0  0  0  0
  -36.6728   61.4983   67.9809 H   0  0  0  0  0  0  0  0  0  0  0  0
  -36.3991   62.5896   69.3777 H   0  0  0  0  0  0  0  0  0  0  0  0
  -35.2403   65.0663   58.6599 H   0  0  0  0  0  0  0  0  0  0  0  0
  -37.3638   63.4609   66.6882 H   0  0  0  0  0  0  0  0  0  0  0  0
  -35.7217   63.6229   67.2913 H   0  0  0  0  0  0  0  0  0  0  0  0
  -38.2346   66.7105   60.3894 H   0  0  0  0  0  0  0  0  0  0  0  0
  -36.5203   65.0121   69.1308 H   0  0  0  0  0  0  0  0  0  0  0  0
  -38.1818   64.8349   68.4868 H   0  0  0  0  0  0  0  0  0  0  0  0
  -37.2645   67.0288   67.9919 H   0  0  0  0  0  0  0  0  0  0  0  0
  -37.5861   66.0539   66.5351 H   0  0  0  0  0  0  0  0  0  0  0  0
  -41.1248   68.4413   62.1820 H   0  0  0  0  0  0  0  0  0  0  0  0
  -35.2414   65.5889   66.2917 H   0  0  0  0  0  0  0  0  0  0  0  0
  -34.9089   66.5389   67.7569 H   0  0  0  0  0  0  0  0  0  0  0  0
  -36.0211   67.6333   65.1997 H   0  0  0  0  0  0  0  0  0  0  0  0
  -34.3459   67.7836   65.7795 H   0  0  0  0  0  0  0  0  0  0  0  0
  -35.0808   69.0630   67.6575 H   0  0  0  0  0  0  0  0  0  0  0  0
  -36.7691   68.9007   67.0639 H   0  0  0  0  0  0  0  0  0  0  0  0
  -34.6034   70.4008   65.6957 H   0  0  0  0  0  0  0  0  0  0  0  0
  -35.9212   71.0835   66.6794 H   0  0  0  0  0  0  0  0  0  0  0  0
  -33.5125   65.2894   61.6918 H   0  0  0  0  0  0  0  0  0  0  0  0
  -36.2707   69.5576   64.1340 H   0  0  0  0  0  0  0  0  0  0  0  0
  -36.3833   71.3304   64.3572 H   0  0  0  0  0  0  0  0  0  0  0  0
  -38.5811   70.3087   64.1618 H   0  0  0  0  0  0  0  0  0  0  0  0
  -38.3163   71.0695   65.7252 H   0  0  0  0  0  0  0  0  0  0  0  0
  -37.8190   68.9153   66.7054 H   0  0  0  0  0  0  0  0  0  0  0  0
  -38.1125   68.1727   65.0927 H   0  0  0  0  0  0  0  0  0  0  0  0
  -40.1630   69.4466   66.8243 H   0  0  0  0  0  0  0  0  0  0  0  0
  -39.9484   67.7335   66.5558 H   0  0  0  0  0  0  0  0  0  0  0  0
  -40.4199   68.7728   65.2327 H   0  0  0  0  0  0  0  0  0  0  0  0
  -42.2523   60.0560   61.9341 H   0  0  0  0  0  0  0  0  0  0  0  0
  -42.9881   58.6617   62.6370 H   0  0  0  0  0  0  0  0  0  0  0  0
  -40.6430   58.6327   60.7180 H   0  0  0  0  0  0  0  0  0  0  0  0
  -42.2902   58.2042   60.3072 H   0  0  0  0  0  0  0  0  0  0  0  0
  -42.2252   56.3814   61.9093 H   0  0  0  0  0  0  0  0  0  0  0  0
  -40.5308   56.8461   62.2860 H   0  0  0  0  0  0  0  0  0  0  0  0
  -39.8273   56.1749   60.1341 H   0  0  0  0  0  0  0  0  0  0  0  0
  -41.4476   55.7671   59.6707 H   0  0  0  0  0  0  0  0  0  0  0  0
  -41.5604   54.1359   61.5127 H   0  0  0  0  0  0  0  0  0  0  0  0
  -39.9010   54.5713   61.9534 H   0  0  0  0  0  0  0  0  0  0  0  0
  -40.7376   53.3047   59.3747 H   0  0  0  0  0  0  0  0  0  0  0  0
  -39.9490   52.4997   60.7561 H   0  0  0  0  0  0  0  0  0  0  0  0
  -37.9711   53.8153   60.4331 H   0  0  0  0  0  0  0  0  0  0  0  0
  -38.7477   54.6476   59.0746 H   0  0  0  0  0  0  0  0  0  0  0  0
  -38.8216   52.5756   57.8168 H   0  0  0  0  0  0  0  0  0  0  0  0
  -38.0829   51.7199   59.1603 H   0  0  0  0  0  0  0  0  0  0  0  0
  -36.0933   53.0951   58.9583 H   0  0  0  0  0  0  0  0  0  0  0  0
  -36.8691   53.9438   57.5879 H   0  0  0  0  0  0  0  0  0  0  0  0
  -36.0716   51.0769   57.6053 H   0  0  0  0  0  0  0  0  0  0  0  0
  -35.1957   52.4047   56.8335 H   0  0  0  0  0  0  0  0  0  0  0  0
  -37.9677   51.5283   56.1744 H   0  0  0  0  0  0  0  0  0  0  0  0
  -36.4657   51.2081   55.2424 H   0  0  0  0  0  0  0  0  0  0  0  0
  -37.6757   53.9051   55.6472 H   0  0  0  0  0  0  0  0  0  0  0  0
  -37.8322   52.9485   54.2043 H   0  0  0  0  0  0  0  0  0  0  0  0
  -35.2657   53.8504   55.4611 H   0  0  0  0  0  0  0  0  0  0  0  0
  -36.0640   54.4782   53.9541 H   0  0  0  0  0  0  0  0  0  0  0  0
  -34.8103   51.8157   54.2262 H   0  0  0  0  0  0  0  0  0  0  0  0
  -34.0818   53.2277   53.4734 H   0  0  0  0  0  0  0  0  0  0  0  0
  -36.6507   51.9252   52.6236 H   0  0  0  0  0  0  0  0  0  0  0  0
  -35.0658   51.7985   51.8128 H   0  0  0  0  0  0  0  0  0  0  0  0
  -36.6696   54.3056   52.0827 H   0  0  0  0  0  0  0  0  0  0  0  0
  -36.5268   53.2924   50.6315 H   0  0  0  0  0  0  0  0  0  0  0  0
  -34.2863   54.7819   51.9459 H   0  0  0  0  0  0  0  0  0  0  0  0
  -35.0850   55.2327   50.4587 H   0  0  0  0  0  0  0  0  0  0  0  0
  -34.1504   53.7584   50.5363 H   0  0  0  0  0  0  0  0  0  0  0  0
  -37.8613   64.3371   64.6865 H   0  0  0  0  0  0  0  0  0  0  0  0
  -38.5037   64.2763   61.7531 H   0  0  0  0  0  0  0  0  0  0  0  0
  -36.2362   65.6172   63.1242 H   0  0  0  0  0  0  0  0  0  0  0  0
  -37.4139   67.6641   62.3117 H   0  0  0  0  0  0  0  0  0  0  0  0
  -38.2128   66.7722   64.5111 H   0  0  0  0  0  0  0  0  0  0  0  0
  -40.2958   68.0614   64.2812 H   0  0  0  0  0  0  0  0  0  0  0  0
  -39.1105   68.7786   63.2144 H   0  0  0  0  0  0  0  0  0  0  0  0
  1  4  1  0  0  0  0
  1 31  1  0  0  0  0
  1 56  1  0  0  0  0
  2  3  1  0  0  0  0
  2  4  1  0  0  0  0
  2 57  1  0  0  0  0
  2 58  1  0  0  0  0
  3 49  1  0  0  0  0
  4  6  1  0  0  0  0
  4 59  1  1  0  0  0
  5  6  1  0  0  0  0
  5 60  1  0  0  0  0
  6  8  1  0  0  0  0
  6 61  1  1  0  0  0
  7 31  2  0  0  0  0
  8  9  2  0  0  0  0
  8 62  1  0  0  0  0
  9 11  1  0  0  0  0
  9 63  1  0  0  0  0
 10 50  1  0  0  0  0
 10 64  1  0  0  0  0
 11 13  1  0  0  0  0
 11 65  1  0  0  0  0
 11 66  1  0  0  0  0
 12 51  1  0  0  0  0
 12 55  1  0  0  0  0
 13 15  1  0  0  0  0
 13 67  1  0  0  0  0
 13 68  1  0  0  0  0
 14 55  1  0  0  0  0
 14 69  1  0  0  0  0
 15 17  1  0  0  0  0
 15 70  1  0  0  0  0
 15 71  1  0  0  0  0
 16 52  1  0  0  0  0
 16 72  1  0  0  0  0
 17 19  1  0  0  0  0
 17 73  1  0  0  0  0
 17 74  1  0  0  0  0
 18 49  1  0  0  0  0
 18 53  1  0  0  0  0
 19 21  1  0  0  0  0
 19 75  1  0  0  0  0
 19 76  1  0  0  0  0
 20 54  1  0  0  0  0
 20 77  1  0  0  0  0
 21 22  1  0  0  0  0
 21 78  1  0  0  0  0
 21 79  1  0  0  0  0
 22 23  1  0  0  0  0
 22 80  1  0  0  0  0
 22 81  1  0  0  0  0
 23 25  1  0  0  0  0
 23 82  1  0  0  0  0
 23 83  1  0  0  0  0
 24 55  1  0  0  0  0
 25 27  1  0  0  0  0
 25 84  1  0  0  0  0
 25 85  1  0  0  0  0
 26 55  1  0  0  0  0
 26 86  1  0  0  0  0
 27 28  1  0  0  0  0
 27 87  1  0  0  0  0
 27 88  1  0  0  0  0
 28 29  1  0  0  0  0
 28 89  1  0  0  0  0
 28 90  1  0  0  0  0
 29 30  1  0  0  0  0
 29 91  1  0  0  0  0
 29 92  1  0  0  0  0
 30 93  1  0  0  0  0
 30 94  1  0  0  0  0
 30 95  1  0  0  0  0
 31 32  1  0  0  0  0
 32 33  1  0  0  0  0
 32 96  1  0  0  0  0
 32 97  1  0  0  0  0
 33 34  1  0  0  0  0
 33 98  1  0  0  0  0
 33 99  1  0  0  0  0
 34 35  1  0  0  0  0
 34100  1  0  0  0  0
 34101  1  0  0  0  0
 35 36  1  0  0  0  0
 35102  1  0  0  0  0
 35103  1  0  0  0  0
 36 37  1  0  0  0  0
 36104  1  0  0  0  0
 36105  1  0  0  0  0
 37 38  1  0  0  0  0
 37106  1  0  0  0  0
 37107  1  0  0  0  0
 38 39  1  0  0  0  0
 38108  1  0  0  0  0
 38109  1  0  0  0  0
 39 40  1  0  0  0  0
 39110  1  0  0  0  0
 39111  1  0  0  0  0
 40 41  1  0  0  0  0
 40112  1  0  0  0  0
 40113  1  0  0  0  0
 41 42  1  0  0  0  0
 41114  1  0  0  0  0
 41115  1  0  0  0  0
 42 43  1  0  0  0  0
 42116  1  0  0  0  0
 42117  1  0  0  0  0
 43 44  1  0  0  0  0
 43118  1  0  0  0  0
 43119  1  0  0  0  0
 44 45  1  0  0  0  0
 44120  1  0  0  0  0
 44121  1  0  0  0  0
 45 46  1  0  0  0  0
 45122  1  0  0  0  0
 45123  1  0  0  0  0
 46 47  1  0  0  0  0
 46124  1  0  0  0  0
 46125  1  0  0  0  0
 47 48  1  0  0  0  0
 47126  1  0  0  0  0
 47127  1  0  0  0  0
 48128  1  0  0  0  0
 48129  1  0  0  0  0
 48130  1  0  0  0  0
 49 50  1  0  0  0  0
 49131  1  1  0  0  0
 50 51  1  0  0  0  0
 50132  1  6  0  0  0
 51 52  1  0  0  0  0
 51133  1  1  0  0  0
 52 53  1  0  0  0  0
 52134  1  6  0  0  0
 53 54  1  0  0  0  0
 53135  1  1  0  0  0
 54136  1  0  0  0  0
 54137  1  0  0  0  0
M  CHG  1  24  -1
M  END
$$$$