/media/chris/experiments/cd1a-new-docking/inputs/ligands/1onq_ligand.pdb
 OpenBabel06222310383D

137137  0  0  1  0  0  0  0  0999 V2000
  -40.4920   60.2280   63.6270 N   0  0  0  0  0  0  0  0  0  0  0  0
  -38.5950   61.7730   64.2860 C   0  0  0  0  0  0  0  0  0  0  0  0
  -37.8612   61.7550   63.0352 O   0  0  0  0  0  0  0  0  0  0  0  0
  -39.4590   60.5300   64.5980 C   0  0  1  0  0  0  0  0  0  0  0  0
  -39.2569   60.8461   66.8904 O   0  0  0  0  0  0  0  0  0  0  0  0
  -40.2280   60.5370   65.9080 C   0  0  2  0  0  0  0  0  0  0  0  0
  -40.6436   57.9696   63.7820 O   0  0  0  0  0  0  0  0  0  0  0  0
  -40.8583   59.1606   66.1332 C   0  0  0  0  0  0  0  0  0  0  0  0
  -41.7314   58.6062   65.2749 C   0  0  0  0  0  0  0  0  0  0  0  0
  -40.4867   62.7491   62.4913 O   0  0  0  0  0  0  0  0  0  0  0  0
  -42.3177   57.2272   65.5716 C   0  0  0  0  0  0  0  0  0  0  0  0
  -41.3164   63.5659   59.7683 O   0  0  0  0  0  0  0  0  0  0  0  0
  -43.8482   57.2164   65.6974 C   0  0  0  0  0  0  0  0  0  0  0  0
  -43.4033   65.0686   60.0896 O   0  0  0  0  0  0  0  0  0  0  0  0
  -44.6231   57.6655   64.4447 C   0  0  0  0  0  0  0  0  0  0  0  0
  -38.7607   63.8137   58.8462 O   0  0  0  0  0  0  0  0  0  0  0  0
  -44.3132   56.7378   63.2453 C   0  0  0  0  0  0  0  0  0  0  0  0
  -37.6382   61.6364   60.6224 O   0  0  0  0  0  0  0  0  0  0  0  0
  -45.0282   57.1073   61.9210 C   0  0  0  0  0  0  0  0  0  0  0  0
  -38.0898   61.4904   56.9396 O   0  0  0  0  0  0  0  0  0  0  0  0
  -46.5723   57.1078   62.0135 C   0  0  0  0  0  0  0  0  0  0  0  0
  -47.1291   58.1185   63.0395 C   0  0  0  0  0  0  0  0  0  0  0  0
  -46.7641   59.5757   62.7318 C   0  0  0  0  0  0  0  0  0  0  0  0
  -42.0156   64.5219   62.0039 O   0  5  0  0  0  0  0  0  0  0  0  0
  -47.2744   60.6193   63.7232 C   0  0  0  0  0  0  0  0  0  0  0  0
  -43.5096   62.8594   61.0666 O   0  0  0  0  0  0  0  0  0  0  0  0
  -46.7476   60.4286   65.1592 C   0  0  0  0  0  0  0  0  0  0  0  0
  -47.2563   61.4530   66.1847 C   0  0  0  0  0  0  0  0  0  0  0  0
  -48.7815   61.3956   66.3092 C   0  0  0  0  0  0  0  0  0  0  0  0
  -49.3722   60.0745   66.7688 C   0  0  0  0  0  0  0  0  0  0  0  0
  -40.9921   59.0290   63.2983 C   0  0  0  0  0  0  0  0  0  0  0  0
  -42.0683   59.0516   62.2538 C   0  0  0  0  0  0  0  0  0  0  0  0
  -41.5552   58.2106   61.0848 C   0  0  0  0  0  0  0  0  0  0  0  0
  -41.3002   56.7776   61.5456 C   0  0  0  0  0  0  0  0  0  0  0  0
  -40.7718   55.8279   60.4980 C   0  0  0  0  0  0  0  0  0  0  0  0
  -40.6059   54.4620   61.1558 C   0  0  0  0  0  0  0  0  0  0  0  0
  -39.6418   54.4919   62.3494 C   0  0  0  0  0  0  0  0  0  0  0  0
  -39.4353   53.1262   63.0296 C   0  0  0  0  0  0  0  0  0  0  0  0
  -38.4739   53.1957   64.2363 C   0  0  0  0  0  0  0  0  0  0  0  0
  -39.0226   54.1392   65.3104 C   0  0  0  0  0  0  0  0  0  0  0  0
  -38.1407   54.2954   66.5433 C   0  0  0  0  0  0  0  0  0  0  0  0
  -37.8979   52.9706   67.2510 C   0  0  0  0  0  0  0  0  0  0  0  0
  -37.1925   51.8898   66.4285 C   0  0  0  0  0  0  0  0  0  0  0  0
  -35.8218   52.4170   66.0260 C   0  0  0  0  0  0  0  0  0  0  0  0
  -35.7448   53.6916   65.1985 C   0  0  0  0  0  0  0  0  0  0  0  0
  -34.2855   54.0522   64.8787 C   0  0  0  0  0  0  0  0  0  0  0  0
  -33.3973   54.2772   66.1163 C   0  0  0  0  0  0  0  0  0  0  0  0
  -33.8982   55.3988   67.0234 C   0  0  0  0  0  0  0  0  0  0  0  0
  -38.5606   61.6540   61.7388 C   0  0  2  0  0  0  0  0  0  0  0  0
  -39.5794   62.7613   61.4326 C   0  0  1  0  0  0  0  0  0  0  0  0
  -40.3623   62.5383   60.1202 C   0  0  2  0  0  0  0  0  0  0  0  0
  -39.3395   62.5224   59.0179 C   0  0  2  0  0  0  0  0  0  0  0  0
  -38.2716   61.4876   59.3230 C   0  0  1  0  0  0  0  0  0  0  0  0
  -37.3507   61.6405   58.1144 C   0  0  0  0  0  0  0  0  0  0  0  0
  -42.5984   63.9931   60.7408 S   0  0  0  0  0  0  0  0  0  0  0  0
  -40.8737   60.9998   63.1496 H   0  0  0  0  0  0  0  0  0  0  0  0
  -39.2437   62.6238   64.2698 H   0  0  0  0  0  0  0  0  0  0  0  0
  -37.8479   61.7974   65.0516 H   0  0  0  0  0  0  0  0  0  0  0  0
  -38.6677   59.8099   64.6092 H   0  0  0  0  0  0  0  0  0  0  0  0
  -38.8837   61.7234   66.7113 H   0  0  0  0  0  0  0  0  0  0  0  0
  -41.0317   61.2430   65.9299 H   0  0  0  0  0  0  0  0  0  0  0  0
  -40.6011   58.6342   66.9828 H   0  0  0  0  0  0  0  0  0  0  0  0
  -42.0050   59.1109   64.4174 H   0  0  0  0  0  0  0  0  0  0  0  0
  -40.0119   62.8880   63.3257 H   0  0  0  0  0  0  0  0  0  0  0  0
  -41.9014   56.8750   66.4922 H   0  0  0  0  0  0  0  0  0  0  0  0
  -42.0696   56.5989   64.7418 H   0  0  0  0  0  0  0  0  0  0  0  0
  -44.1168   57.8688   66.5018 H   0  0  0  0  0  0  0  0  0  0  0  0
  -44.1209   56.1945   65.8589 H   0  0  0  0  0  0  0  0  0  0  0  0
  -42.8260   65.8165   59.8699 H   0  0  0  0  0  0  0  0  0  0  0  0
  -44.3387   58.6668   64.1965 H   0  0  0  0  0  0  0  0  0  0  0  0
  -45.6713   57.6172   64.6540 H   0  0  0  0  0  0  0  0  0  0  0  0
  -39.4595   64.4581   58.6526 H   0  0  0  0  0  0  0  0  0  0  0  0
  -44.6049   55.7436   63.5123 H   0  0  0  0  0  0  0  0  0  0  0  0
  -43.2653   56.8403   63.0546 H   0  0  0  0  0  0  0  0  0  0  0  0
  -44.7370   56.3993   61.1734 H   0  0  0  0  0  0  0  0  0  0  0  0
  -44.7340   58.1077   61.6811 H   0  0  0  0  0  0  0  0  0  0  0  0
  -37.5028   61.5878   56.1736 H   0  0  0  0  0  0  0  0  0  0  0  0
  -46.8947   56.1272   62.2953 H   0  0  0  0  0  0  0  0  0  0  0  0
  -46.9444   57.3979   61.0532 H   0  0  0  0  0  0  0  0  0  0  0  0
  -46.7395   57.8694   64.0044 H   0  0  0  0  0  0  0  0  0  0  0  0
  -48.1961   58.0487   62.9988 H   0  0  0  0  0  0  0  0  0  0  0  0
  -47.1637   59.8165   61.7689 H   0  0  0  0  0  0  0  0  0  0  0  0
  -45.6967   59.6229   62.7884 H   0  0  0  0  0  0  0  0  0  0  0  0
  -48.3429   60.5670   63.7469 H   0  0  0  0  0  0  0  0  0  0  0  0
  -46.9163   61.5692   63.3852 H   0  0  0  0  0  0  0  0  0  0  0  0
  -43.8942   62.5084   60.2482 H   0  0  0  0  0  0  0  0  0  0  0  0
  -45.6798   60.4909   65.1309 H   0  0  0  0  0  0  0  0  0  0  0  0
  -47.1120   59.4767   65.4849 H   0  0  0  0  0  0  0  0  0  0  0  0
  -46.9677   62.4345   65.8713 H   0  0  0  0  0  0  0  0  0  0  0  0
  -46.8280   61.2222   67.1377 H   0  0  0  0  0  0  0  0  0  0  0  0
  -49.1952   61.6205   65.3484 H   0  0  0  0  0  0  0  0  0  0  0  0
  -49.0309   62.1001   67.0749 H   0  0  0  0  0  0  0  0  0  0  0  0
  -49.1589   59.3170   66.0437 H   0  0  0  0  0  0  0  0  0  0  0  0
  -50.4318   60.1760   66.8773 H   0  0  0  0  0  0  0  0  0  0  0  0
  -48.9421   59.7993   67.7091 H   0  0  0  0  0  0  0  0  0  0  0  0
  -42.2523   60.0560   61.9341 H   0  0  0  0  0  0  0  0  0  0  0  0
  -42.9881   58.6617   62.6370 H   0  0  0  0  0  0  0  0  0  0  0  0
  -40.6430   58.6327   60.7180 H   0  0  0  0  0  0  0  0  0  0  0  0
  -42.2902   58.2042   60.3072 H   0  0  0  0  0  0  0  0  0  0  0  0
  -42.2252   56.3814   61.9093 H   0  0  0  0  0  0  0  0  0  0  0  0
  -40.5308   56.8461   62.2860 H   0  0  0  0  0  0  0  0  0  0  0  0
  -39.8273   56.1749   60.1341 H   0  0  0  0  0  0  0  0  0  0  0  0
  -41.4476   55.7671   59.6707 H   0  0  0  0  0  0  0  0  0  0  0  0
  -40.2277   53.7752   60.4277 H   0  0  0  0  0  0  0  0  0  0  0  0
  -41.5650   54.1618   61.5229 H   0  0  0  0  0  0  0  0  0  0  0  0
  -40.0300   55.1737   63.0770 H   0  0  0  0  0  0  0  0  0  0  0  0
  -38.6886   54.7916   61.9667 H   0  0  0  0  0  0  0  0  0  0  0  0
  -39.0322   52.4440   62.3105 H   0  0  0  0  0  0  0  0  0  0  0  0
  -40.3872   52.8021   63.3954 H   0  0  0  0  0  0  0  0  0  0  0  0
  -37.5213   53.5546   63.9066 H   0  0  0  0  0  0  0  0  0  0  0  0
  -38.3759   52.2161   64.6556 H   0  0  0  0  0  0  0  0  0  0  0  0
  -39.9730   53.7636   65.6277 H   0  0  0  0  0  0  0  0  0  0  0  0
  -39.0774   55.1072   64.8578 H   0  0  0  0  0  0  0  0  0  0  0  0
  -38.6186   54.9673   67.2253 H   0  0  0  0  0  0  0  0  0  0  0  0
  -37.1928   54.6736   66.2219 H   0  0  0  0  0  0  0  0  0  0  0  0
  -38.8477   52.5829   67.5549 H   0  0  0  0  0  0  0  0  0  0  0  0
  -37.2362   53.1938   68.0617 H   0  0  0  0  0  0  0  0  0  0  0  0
  -37.7667   51.6682   65.5532 H   0  0  0  0  0  0  0  0  0  0  0  0
  -37.0894   50.9946   67.0054 H   0  0  0  0  0  0  0  0  0  0  0  0
  -35.3405   51.6455   65.4621 H   0  0  0  0  0  0  0  0  0  0  0  0
  -35.3614   52.6814   66.9550 H   0  0  0  0  0  0  0  0  0  0  0  0
  -36.1911   54.4935   65.7486 H   0  0  0  0  0  0  0  0  0  0  0  0
  -36.2667   53.5329   64.2780 H   0  0  0  0  0  0  0  0  0  0  0  0
  -34.2829   54.9507   64.2978 H   0  0  0  0  0  0  0  0  0  0  0  0
  -33.8726   53.2148   64.3561 H   0  0  0  0  0  0  0  0  0  0  0  0
  -32.4099   54.5232   65.7856 H   0  0  0  0  0  0  0  0  0  0  0  0
  -33.4172   53.3736   66.6891 H   0  0  0  0  0  0  0  0  0  0  0  0
  -33.8929   56.3228   66.4840 H   0  0  0  0  0  0  0  0  0  0  0  0
  -33.2578   55.4802   67.8767 H   0  0  0  0  0  0  0  0  0  0  0  0
  -34.8948   55.1792   67.3450 H   0  0  0  0  0  0  0  0  0  0  0  0
  -39.0913   60.7313   61.8483 H   0  0  0  0  0  0  0  0  0  0  0  0
  -39.0559   63.6873   61.3173 H   0  0  0  0  0  0  0  0  0  0  0  0
  -40.9244   61.6378   60.2552 H   0  0  0  0  0  0  0  0  0  0  0  0
  -39.8234   62.2578   58.1011 H   0  0  0  0  0  0  0  0  0  0  0  0
  -38.6490   60.4925   59.4336 H   0  0  0  0  0  0  0  0  0  0  0  0
  -36.9007   62.6111   58.1302 H   0  0  0  0  0  0  0  0  0  0  0  0
  -36.5880   60.8910   58.1521 H   0  0  0  0  0  0  0  0  0  0  0  0
  1  4  1  0  0  0  0
  1 31  1  0  0  0  0
  1 56  1  0  0  0  0
  2  3  1  0  0  0  0
  2  4  1  0  0  0  0
  2 57  1  0  0  0  0
  2 58  1  0  0  0  0
  3 49  1  0  0  0  0
  4  6  1  0  0  0  0
  4 59  1  1  0  0  0
  5  6  1  0  0  0  0
  5 60  1  0  0  0  0
  6  8  1  0  0  0  0
  6 61  1  6  0  0  0
  7 31  2  0  0  0  0
  8  9  2  0  0  0  0
  8 62  1  0  0  0  0
  9 11  1  0  0  0  0
  9 63  1  0  0  0  0
 10 50  1  0  0  0  0
 10 64  1  0  0  0  0
 11 13  1  0  0  0  0
 11 65  1  0  0  0  0
 11 66  1  0  0  0  0
 12 51  1  0  0  0  0
 12 55  1  0  0  0  0
 13 15  1  0  0  0  0
 13 67  1  0  0  0  0
 13 68  1  0  0  0  0
 14 55  1  0  0  0  0
 14 69  1  0  0  0  0
 15 17  1  0  0  0  0
 15 70  1  0  0  0  0
 15 71  1  0  0  0  0
 16 52  1  0  0  0  0
 16 72  1  0  0  0  0
 17 19  1  0  0  0  0
 17 73  1  0  0  0  0
 17 74  1  0  0  0  0
 18 49  1  0  0  0  0
 18 53  1  0  0  0  0
 19 21  1  0  0  0  0
 19 75  1  0  0  0  0
 19 76  1  0  0  0  0
 20 54  1  0  0  0  0
 20 77  1  0  0  0  0
 21 22  1  0  0  0  0
 21 78  1  0  0  0  0
 21 79  1  0  0  0  0
 22 23  1  0  0  0  0
 22 80  1  0  0  0  0
 22 81  1  0  0  0  0
 23 25  1  0  0  0  0
 23 82  1  0  0  0  0
 23 83  1  0  0  0  0
 24 55  1  0  0  0  0
 25 27  1  0  0  0  0
 25 84  1  0  0  0  0
 25 85  1  0  0  0  0
 26 55  1  0  0  0  0
 26 86  1  0  0  0  0
 27 28  1  0  0  0  0
 27 87  1  0  0  0  0
 27 88  1  0  0  0  0
 28 29  1  0  0  0  0
 28 89  1  0  0  0  0
 28 90  1  0  0  0  0
 29 30  1  0  0  0  0
 29 91  1  0  0  0  0
 29 92  1  0  0  0  0
 30 93  1  0  0  0  0
 30 94  1  0  0  0  0
 30 95  1  0  0  0  0
 31 32  1  0  0  0  0
 32 33  1  0  0  0  0
 32 96  1  0  0  0  0
 32 97  1  0  0  0  0
 33 34  1  0  0  0  0
 33 98  1  0  0  0  0
 33 99  1  0  0  0  0
 34 35  1  0  0  0  0
 34100  1  0  0  0  0
 34101  1  0  0  0  0
 35 36  1  0  0  0  0
 35102  1  0  0  0  0
 35103  1  0  0  0  0
 36 37  1  0  0  0  0
 36104  1  0  0  0  0
 36105  1  0  0  0  0
 37 38  1  0  0  0  0
 37106  1  0  0  0  0
 37107  1  0  0  0  0
 38 39  1  0  0  0  0
 38108  1  0  0  0  0
 38109  1  0  0  0  0
 39 40  1  0  0  0  0
 39110  1  0  0  0  0
 39111  1  0  0  0  0
 40 41  1  0  0  0  0
 40112  1  0  0  0  0
 40113  1  0  0  0  0
 41 42  1  0  0  0  0
 41114  1  0  0  0  0
 41115  1  0  0  0  0
 42 43  1  0  0  0  0
 42116  1  0  0  0  0
 42117  1  0  0  0  0
 43 44  1  0  0  0  0
 43118  1  0  0  0  0
 43119  1  0  0  0  0
 44 45  1  0  0  0  0
 44120  1  0  0  0  0
 44121  1  0  0  0  0
 45 46  1  0  0  0  0
 45122  1  0  0  0  0
 45123  1  0  0  0  0
 46 47  1  0  0  0  0
 46124  1  0  0  0  0
 46125  1  0  0  0  0
 47 48  1  0  0  0  0
 47126  1  0  0  0  0
 47127  1  0  0  0  0
 48128  1  0  0  0  0
 48129  1  0  0  0  0
 48130  1  0  0  0  0
 49 50  1  0  0  0  0
 49131  1  6  0  0  0
 50 51  1  0  0  0  0
 50132  1  6  0  0  0
 51 52  1  0  0  0  0
 51133  1  1  0  0  0
 52 53  1  0  0  0  0
 52134  1  6  0  0  0
 53 54  1  0  0  0  0
 53135  1  6  0  0  0
 54136  1  0  0  0  0
 54137  1  0  0  0  0
M  CHG  1  24  -1
M  END
$$$$