/media/chris/experiments/cd1a-new-docking/inputs/ligands/1onq_ligand.pdb
 OpenBabel06222310383D

137137  0  0  1  0  0  0  0  0999 V2000
  -40.4920   60.2280   63.6270 N   0  0  0  0  0  0  0  0  0  0  0  0
  -38.5950   61.7730   64.2860 C   0  0  0  0  0  0  0  0  0  0  0  0
  -37.8612   61.7550   63.0352 O   0  0  0  0  0  0  0  0  0  0  0  0
  -39.4590   60.5300   64.5980 C   0  0  1  0  0  0  0  0  0  0  0  0
  -39.2569   60.8461   66.8904 O   0  0  0  0  0  0  0  0  0  0  0  0
  -40.2280   60.5370   65.9080 C   0  0  2  0  0  0  0  0  0  0  0  0
  -41.3945   60.2146   61.5455 O   0  0  0  0  0  0  0  0  0  0  0  0
  -40.8583   59.1606   66.1332 C   0  0  0  0  0  0  0  0  0  0  0  0
  -42.0897   58.8399   65.7007 C   0  0  0  0  0  0  0  0  0  0  0  0
  -35.0763   61.8852   63.6713 O   0  0  0  0  0  0  0  0  0  0  0  0
  -42.6490   57.4435   65.9661 C   0  0  0  0  0  0  0  0  0  0  0  0
  -33.4668   59.4465   64.1535 O   0  0  0  0  0  0  0  0  0  0  0  0
  -41.8027   56.3106   65.3673 C   0  0  0  0  0  0  0  0  0  0  0  0
  -31.2016   58.4787   64.9591 O   0  0  0  0  0  0  0  0  0  0  0  0
  -42.3390   54.8854   65.5963 C   0  0  0  0  0  0  0  0  0  0  0  0
  -35.6387   57.8611   64.6143 O   0  0  0  0  0  0  0  0  0  0  0  0
  -41.3944   53.8350   64.9640 C   0  0  0  0  0  0  0  0  0  0  0  0
  -37.4637   59.3802   62.7389 O   0  0  0  0  0  0  0  0  0  0  0  0
  -41.8460   52.3607   65.1190 C   0  0  0  0  0  0  0  0  0  0  0  0
  -38.1836   56.7154   61.7172 O   0  0  0  0  0  0  0  0  0  0  0  0
  -42.0034   51.8974   66.5864 C   0  0  0  0  0  0  0  0  0  0  0  0
  -40.7047   52.0138   67.4134 C   0  0  0  0  0  0  0  0  0  0  0  0
  -40.8516   51.5395   68.8642 C   0  0  0  0  0  0  0  0  0  0  0  0
  -31.5793   58.8261   62.5872 O   0  5  0  0  0  0  0  0  0  0  0  0
  -41.8945   52.2704   69.7071 C   0  0  0  0  0  0  0  0  0  0  0  0
  -32.6385   56.9705   63.7315 O   0  0  0  0  0  0  0  0  0  0  0  0
  -41.9893   51.7665   71.1608 C   0  0  0  0  0  0  0  0  0  0  0  0
  -42.3447   50.2801   71.3166 C   0  0  0  0  0  0  0  0  0  0  0  0
  -42.4305   49.8872   72.7943 C   0  0  0  0  0  0  0  0  0  0  0  0
  -43.4710   50.6147   73.6270 C   0  0  0  0  0  0  0  0  0  0  0  0
  -40.4890   60.4819   62.3113 C   0  0  0  0  0  0  0  0  0  0  0  0
  -39.2530   61.1566   61.7948 C   0  0  0  0  0  0  0  0  0  0  0  0
  -39.4673   61.3649   60.2955 C   0  0  0  0  0  0  0  0  0  0  0  0
  -38.2406   62.0353   59.6815 C   0  0  0  0  0  0  0  0  0  0  0  0
  -38.3125   62.3217   58.2013 C   0  0  0  0  0  0  0  0  0  0  0  0
  -38.5226   60.9922   57.4843 C   0  0  0  0  0  0  0  0  0  0  0  0
  -37.3944   59.9878   57.7550 C   0  0  0  0  0  0  0  0  0  0  0  0
  -35.9978   60.4755   57.3282 C   0  0  0  0  0  0  0  0  0  0  0  0
  -34.8896   59.4343   57.5988 C   0  0  0  0  0  0  0  0  0  0  0  0
  -35.1583   58.1444   56.8184 C   0  0  0  0  0  0  0  0  0  0  0  0
  -34.1306   57.0387   57.0265 C   0  0  0  0  0  0  0  0  0  0  0  0
  -34.0477   56.5935   58.4790 C   0  0  0  0  0  0  0  0  0  0  0  0
  -35.3329   56.0190   59.0793 C   0  0  0  0  0  0  0  0  0  0  0  0
  -35.7234   54.7858   58.2758 C   0  0  0  0  0  0  0  0  0  0  0  0
  -36.9872   54.0326   58.6640 C   0  0  0  0  0  0  0  0  0  0  0  0
  -38.2244   54.9369   58.5460 C   0  0  0  0  0  0  0  0  0  0  0  0
  -38.4867   55.4784   57.1286 C   0  0  0  0  0  0  0  0  0  0  0  0
  -38.7275   54.3788   56.0969 C   0  0  0  0  0  0  0  0  0  0  0  0
  -36.8691   60.7008   62.7449 C   0  0  2  0  0  0  0  0  0  0  0  0
  -35.6676   60.6228   63.6978 C   0  0  1  0  0  0  0  0  0  0  0  0
  -34.6077   59.5817   63.2759 C   0  0  2  0  0  0  0  0  0  0  0  0
  -35.3019   58.2478   63.2843 C   0  0  2  0  0  0  0  0  0  0  0  0
  -36.5404   58.3078   62.4087 C   0  0  1  0  0  0  0  0  0  0  0  0
  -37.0870   56.8902   62.5633 C   0  0  0  0  0  0  0  0  0  0  0  0
  -32.2113   58.3924   63.8628 S   0  0  0  0  0  0  0  0  0  0  0  0
  -41.2958   59.7807   63.9778 H   0  0  0  0  0  0  0  0  0  0  0  0
  -39.2437   62.6238   64.2698 H   0  0  0  0  0  0  0  0  0  0  0  0
  -37.8479   61.7974   65.0516 H   0  0  0  0  0  0  0  0  0  0  0  0
  -38.6677   59.8099   64.6092 H   0  0  0  0  0  0  0  0  0  0  0  0
  -38.8837   61.7234   66.7113 H   0  0  0  0  0  0  0  0  0  0  0  0
  -41.0317   61.2430   65.9299 H   0  0  0  0  0  0  0  0  0  0  0  0
  -40.3128   58.4462   66.6402 H   0  0  0  0  0  0  0  0  0  0  0  0
  -42.6561   59.5355   65.1904 H   0  0  0  0  0  0  0  0  0  0  0  0
  -35.7286   62.5534   63.9341 H   0  0  0  0  0  0  0  0  0  0  0  0
  -43.6315   57.3885   65.5458 H   0  0  0  0  0  0  0  0  0  0  0  0
  -42.6481   57.3047   67.0271 H   0  0  0  0  0  0  0  0  0  0  0  0
  -40.8249   56.3674   65.7982 H   0  0  0  0  0  0  0  0  0  0  0  0
  -41.8189   56.4623   64.3082 H   0  0  0  0  0  0  0  0  0  0  0  0
  -30.9111   59.3987   65.0595 H   0  0  0  0  0  0  0  0  0  0  0  0
  -43.3079   54.7993   65.1506 H   0  0  0  0  0  0  0  0  0  0  0  0
  -42.3962   54.7055   66.6495 H   0  0  0  0  0  0  0  0  0  0  0  0
  -34.8342   57.8293   65.1553 H   0  0  0  0  0  0  0  0  0  0  0  0
  -40.4330   53.9363   65.4225 H   0  0  0  0  0  0  0  0  0  0  0  0
  -41.3909   54.0346   63.9128 H   0  0  0  0  0  0  0  0  0  0  0  0
  -41.1182   51.7352   64.6457 H   0  0  0  0  0  0  0  0  0  0  0  0
  -42.8130   52.2859   64.6672 H   0  0  0  0  0  0  0  0  0  0  0  0
  -38.5288   55.8145   61.8173 H   0  0  0  0  0  0  0  0  0  0  0  0
  -42.3140   50.8735   66.5865 H   0  0  0  0  0  0  0  0  0  0  0  0
  -42.7254   52.5414   67.0433 H   0  0  0  0  0  0  0  0  0  0  0  0
  -40.4013   53.0398   67.4228 H   0  0  0  0  0  0  0  0  0  0  0  0
  -39.9807   51.3774   66.9488 H   0  0  0  0  0  0  0  0  0  0  0  0
  -39.9025   51.6568   69.3443 H   0  0  0  0  0  0  0  0  0  0  0  0
  -41.1901   50.5263   68.8028 H   0  0  0  0  0  0  0  0  0  0  0  0
  -42.8506   52.1438   69.2439 H   0  0  0  0  0  0  0  0  0  0  0  0
  -41.5923   53.2958   69.7536 H   0  0  0  0  0  0  0  0  0  0  0  0
  -33.0518   56.6794   64.5593 H   0  0  0  0  0  0  0  0  0  0  0  0
  -42.7405   52.3407   71.6617 H   0  0  0  0  0  0  0  0  0  0  0  0
  -41.0116   51.8832   71.5795 H   0  0  0  0  0  0  0  0  0  0  0  0
  -41.5909   49.6885   70.8406 H   0  0  0  0  0  0  0  0  0  0  0  0
  -43.2985   50.1088   70.8629 H   0  0  0  0  0  0  0  0  0  0  0  0
  -41.4734   50.0711   73.2360 H   0  0  0  0  0  0  0  0  0  0  0  0
  -42.7305   48.8602   72.7983 H   0  0  0  0  0  0  0  0  0  0  0  0
  -43.2315   51.6568   73.6663 H   0  0  0  0  0  0  0  0  0  0  0  0
  -43.4787   50.2130   74.6187 H   0  0  0  0  0  0  0  0  0  0  0  0
  -44.4361   50.4870   73.1830 H   0  0  0  0  0  0  0  0  0  0  0  0
  -38.3962   60.5381   61.9635 H   0  0  0  0  0  0  0  0  0  0  0  0
  -39.0822   62.0872   62.2945 H   0  0  0  0  0  0  0  0  0  0  0  0
  -40.3246   61.9866   60.1430 H   0  0  0  0  0  0  0  0  0  0  0  0
  -39.6201   60.4151   59.8271 H   0  0  0  0  0  0  0  0  0  0  0  0
  -37.3995   61.3959   59.8505 H   0  0  0  0  0  0  0  0  0  0  0  0
  -38.1674   62.9914   60.1564 H   0  0  0  0  0  0  0  0  0  0  0  0
  -37.4000   62.7735   57.8723 H   0  0  0  0  0  0  0  0  0  0  0  0
  -39.1159   62.9953   57.9873 H   0  0  0  0  0  0  0  0  0  0  0  0
  -38.5722   61.1754   56.4312 H   0  0  0  0  0  0  0  0  0  0  0  0
  -39.4309   60.5653   57.8552 H   0  0  0  0  0  0  0  0  0  0  0  0
  -37.6126   59.0865   57.2211 H   0  0  0  0  0  0  0  0  0  0  0  0
  -37.3589   59.8442   58.8147 H   0  0  0  0  0  0  0  0  0  0  0  0
  -35.7673   61.3684   57.8708 H   0  0  0  0  0  0  0  0  0  0  0  0
  -36.0263   60.6475   56.2725 H   0  0  0  0  0  0  0  0  0  0  0  0
  -34.8632   59.2129   58.6453 H   0  0  0  0  0  0  0  0  0  0  0  0
  -33.9513   59.8395   57.2819 H   0  0  0  0  0  0  0  0  0  0  0  0
  -35.1798   58.3855   55.7762 H   0  0  0  0  0  0  0  0  0  0  0  0
  -36.0875   57.7613   57.1856 H   0  0  0  0  0  0  0  0  0  0  0  0
  -33.1705   57.3996   56.7218 H   0  0  0  0  0  0  0  0  0  0  0  0
  -34.4343   56.1952   56.4423 H   0  0  0  0  0  0  0  0  0  0  0  0
  -33.7631   57.4419   59.0657 H   0  0  0  0  0  0  0  0  0  0  0  0
  -33.3387   55.7922   58.4950 H   0  0  0  0  0  0  0  0  0  0  0  0
  -36.1145   56.7479   59.0269 H   0  0  0  0  0  0  0  0  0  0  0  0
  -35.1771   55.7577   60.1051 H   0  0  0  0  0  0  0  0  0  0  0  0
  -34.9102   54.0939   58.3452 H   0  0  0  0  0  0  0  0  0  0  0  0
  -35.9375   55.1681   57.2996 H   0  0  0  0  0  0  0  0  0  0  0  0
  -36.8964   53.6939   59.6748 H   0  0  0  0  0  0  0  0  0  0  0  0
  -37.1070   53.2021   58.0001 H   0  0  0  0  0  0  0  0  0  0  0  0
  -38.0927   55.7708   59.2033 H   0  0  0  0  0  0  0  0  0  0  0  0
  -39.0690   54.3318   58.8017 H   0  0  0  0  0  0  0  0  0  0  0  0
  -37.6372   56.0520   56.8216 H   0  0  0  0  0  0  0  0  0  0  0  0
  -39.3771   56.0699   57.1751 H   0  0  0  0  0  0  0  0  0  0  0  0
  -37.8554   53.7634   56.0213 H   0  0  0  0  0  0  0  0  0  0  0  0
  -38.9348   54.8218   55.1452 H   0  0  0  0  0  0  0  0  0  0  0  0
  -39.5609   53.7806   56.4010 H   0  0  0  0  0  0  0  0  0  0  0  0
  -36.5129   60.9958   61.7800 H   0  0  0  0  0  0  0  0  0  0  0  0
  -36.0149   60.3239   64.6648 H   0  0  0  0  0  0  0  0  0  0  0  0
  -34.2252   59.9085   62.3316 H   0  0  0  0  0  0  0  0  0  0  0  0
  -34.6362   57.5092   62.8890 H   0  0  0  0  0  0  0  0  0  0  0  0
  -36.3408   58.5664   61.3898 H   0  0  0  0  0  0  0  0  0  0  0  0
  -36.3242   56.1847   62.3077 H   0  0  0  0  0  0  0  0  0  0  0  0
  -37.3927   56.7362   63.5771 H   0  0  0  0  0  0  0  0  0  0  0  0
  1  4  1  0  0  0  0
  1 31  1  0  0  0  0
  1 56  1  0  0  0  0
  2  3  1  0  0  0  0
  2  4  1  0  0  0  0
  2 57  1  0  0  0  0
  2 58  1  0  0  0  0
  3 49  1  0  0  0  0
  4  6  1  0  0  0  0
  4 59  1  1  0  0  0
  5  6  1  0  0  0  0
  5 60  1  0  0  0  0
  6  8  1  0  0  0  0
  6 61  1  6  0  0  0
  7 31  2  0  0  0  0
  8  9  2  0  0  0  0
  8 62  1  0  0  0  0
  9 11  1  0  0  0  0
  9 63  1  0  0  0  0
 10 50  1  0  0  0  0
 10 64  1  0  0  0  0
 11 13  1  0  0  0  0
 11 65  1  0  0  0  0
 11 66  1  0  0  0  0
 12 51  1  0  0  0  0
 12 55  1  0  0  0  0
 13 15  1  0  0  0  0
 13 67  1  0  0  0  0
 13 68  1  0  0  0  0
 14 55  1  0  0  0  0
 14 69  1  0  0  0  0
 15 17  1  0  0  0  0
 15 70  1  0  0  0  0
 15 71  1  0  0  0  0
 16 52  1  0  0  0  0
 16 72  1  0  0  0  0
 17 19  1  0  0  0  0
 17 73  1  0  0  0  0
 17 74  1  0  0  0  0
 18 49  1  0  0  0  0
 18 53  1  0  0  0  0
 19 21  1  0  0  0  0
 19 75  1  0  0  0  0
 19 76  1  0  0  0  0
 20 54  1  0  0  0  0
 20 77  1  0  0  0  0
 21 22  1  0  0  0  0
 21 78  1  0  0  0  0
 21 79  1  0  0  0  0
 22 23  1  0  0  0  0
 22 80  1  0  0  0  0
 22 81  1  0  0  0  0
 23 25  1  0  0  0  0
 23 82  1  0  0  0  0
 23 83  1  0  0  0  0
 24 55  1  0  0  0  0
 25 27  1  0  0  0  0
 25 84  1  0  0  0  0
 25 85  1  0  0  0  0
 26 55  1  0  0  0  0
 26 86  1  0  0  0  0
 27 28  1  0  0  0  0
 27 87  1  0  0  0  0
 27 88  1  0  0  0  0
 28 29  1  0  0  0  0
 28 89  1  0  0  0  0
 28 90  1  0  0  0  0
 29 30  1  0  0  0  0
 29 91  1  0  0  0  0
 29 92  1  0  0  0  0
 30 93  1  0  0  0  0
 30 94  1  0  0  0  0
 30 95  1  0  0  0  0
 31 32  1  0  0  0  0
 32 33  1  0  0  0  0
 32 96  1  0  0  0  0
 32 97  1  0  0  0  0
 33 34  1  0  0  0  0
 33 98  1  0  0  0  0
 33 99  1  0  0  0  0
 34 35  1  0  0  0  0
 34100  1  0  0  0  0
 34101  1  0  0  0  0
 35 36  1  0  0  0  0
 35102  1  0  0  0  0
 35103  1  0  0  0  0
 36 37  1  0  0  0  0
 36104  1  0  0  0  0
 36105  1  0  0  0  0
 37 38  1  0  0  0  0
 37106  1  0  0  0  0
 37107  1  0  0  0  0
 38 39  1  0  0  0  0
 38108  1  0  0  0  0
 38109  1  0  0  0  0
 39 40  1  0  0  0  0
 39110  1  0  0  0  0
 39111  1  0  0  0  0
 40 41  1  0  0  0  0
 40112  1  0  0  0  0
 40113  1  0  0  0  0
 41 42  1  0  0  0  0
 41114  1  0  0  0  0
 41115  1  0  0  0  0
 42 43  1  0  0  0  0
 42116  1  0  0  0  0
 42117  1  0  0  0  0
 43 44  1  0  0  0  0
 43118  1  0  0  0  0
 43119  1  0  0  0  0
 44 45  1  0  0  0  0
 44120  1  0  0  0  0
 44121  1  0  0  0  0
 45 46  1  0  0  0  0
 45122  1  0  0  0  0
 45123  1  0  0  0  0
 46 47  1  0  0  0  0
 46124  1  0  0  0  0
 46125  1  0  0  0  0
 47 48  1  0  0  0  0
 47126  1  0  0  0  0
 47127  1  0  0  0  0
 48128  1  0  0  0  0
 48129  1  0  0  0  0
 48130  1  0  0  0  0
 49 50  1  0  0  0  0
 49131  1  6  0  0  0
 50 51  1  0  0  0  0
 50132  1  1  0  0  0
 51 52  1  0  0  0  0
 51133  1  6  0  0  0
 52 53  1  0  0  0  0
 52134  1  6  0  0  0
 53 54  1  0  0  0  0
 53135  1  6  0  0  0
 54136  1  0  0  0  0
 54137  1  0  0  0  0
M  CHG  1  24  -1
M  END
$$$$