/media/chris/experiments/cd1a-new-docking/inputs/ligands/1onq_ligand.pdb
 OpenBabel06222310383D

137137  0  0  1  0  0  0  0  0999 V2000
  -40.4920   60.2280   63.6270 N   0  0  0  0  0  0  0  0  0  0  0  0
  -38.5950   61.7730   64.2860 C   0  0  0  0  0  0  0  0  0  0  0  0
  -37.8612   61.7550   63.0352 O   0  0  0  0  0  0  0  0  0  0  0  0
  -39.4590   60.5300   64.5980 C   0  0  1  0  0  0  0  0  0  0  0  0
  -39.2569   60.8461   66.8904 O   0  0  0  0  0  0  0  0  0  0  0  0
  -40.2280   60.5370   65.9080 C   0  0  2  0  0  0  0  0  0  0  0  0
  -39.5856   61.0253   61.7060 O   0  0  0  0  0  0  0  0  0  0  0  0
  -40.8583   59.1606   66.1332 C   0  0  0  0  0  0  0  0  0  0  0  0
  -42.0897   58.8399   65.7007 C   0  0  0  0  0  0  0  0  0  0  0  0
  -35.0763   61.8852   63.6713 O   0  0  0  0  0  0  0  0  0  0  0  0
  -42.6490   57.4435   65.9661 C   0  0  0  0  0  0  0  0  0  0  0  0
  -33.4668   59.4465   64.1535 O   0  0  0  0  0  0  0  0  0  0  0  0
  -41.8027   56.3106   65.3673 C   0  0  0  0  0  0  0  0  0  0  0  0
  -32.7211   56.9912   63.7896 O   0  0  0  0  0  0  0  0  0  0  0  0
  -42.3390   54.8854   65.5963 C   0  0  0  0  0  0  0  0  0  0  0  0
  -35.6387   57.8611   64.6143 O   0  0  0  0  0  0  0  0  0  0  0  0
  -41.3944   53.8350   64.9640 C   0  0  0  0  0  0  0  0  0  0  0  0
  -37.4637   59.3802   62.7389 O   0  0  0  0  0  0  0  0  0  0  0  0
  -41.8460   52.3607   65.1190 C   0  0  0  0  0  0  0  0  0  0  0  0
  -38.1836   56.7154   61.7172 O   0  0  0  0  0  0  0  0  0  0  0  0
  -42.0034   51.8974   66.5864 C   0  0  0  0  0  0  0  0  0  0  0  0
  -40.7047   52.0138   67.4134 C   0  0  0  0  0  0  0  0  0  0  0  0
  -40.8516   51.5395   68.8642 C   0  0  0  0  0  0  0  0  0  0  0  0
  -31.2818   58.5097   65.0191 O   0  5  0  0  0  0  0  0  0  0  0  0
  -41.2512   50.0780   69.0556 C   0  0  0  0  0  0  0  0  0  0  0  0
  -31.4609   58.6830   62.6082 O   0  0  0  0  0  0  0  0  0  0  0  0
  -40.2444   49.0713   68.4649 C   0  0  0  0  0  0  0  0  0  0  0  0
  -39.9940   49.2050   66.9551 C   0  0  0  0  0  0  0  0  0  0  0  0
  -41.2925   49.0225   66.1641 C   0  0  0  0  0  0  0  0  0  0  0  0
  -41.1809   49.1147   64.6526 C   0  0  0  0  0  0  0  0  0  0  0  0
  -40.4890   60.4819   62.3113 C   0  0  0  0  0  0  0  0  0  0  0  0
  -41.7153   60.0341   61.5727 C   0  0  0  0  0  0  0  0  0  0  0  0
  -41.4400   58.6060   61.1017 C   0  0  0  0  0  0  0  0  0  0  0  0
  -42.6389   58.0744   60.3198 C   0  0  0  0  0  0  0  0  0  0  0  0
  -42.5197   56.6615   59.8022 C   0  0  0  0  0  0  0  0  0  0  0  0
  -41.3048   56.6088   58.8818 C   0  0  0  0  0  0  0  0  0  0  0  0
  -41.4158   57.5781   57.6972 C   0  0  0  0  0  0  0  0  0  0  0  0
  -42.6361   57.3320   56.7913 C   0  0  0  0  0  0  0  0  0  0  0  0
  -42.7076   58.3131   55.6006 C   0  0  0  0  0  0  0  0  0  0  0  0
  -41.4689   58.1737   54.7110 C   0  0  0  0  0  0  0  0  0  0  0  0
  -41.4282   59.1113   53.5104 C   0  0  0  0  0  0  0  0  0  0  0  0
  -40.1819   58.9086   52.6616 C   0  0  0  0  0  0  0  0  0  0  0  0
  -40.0066   57.5175   52.0482 C   0  0  0  0  0  0  0  0  0  0  0  0
  -41.1945   57.2472   51.1347 C   0  0  0  0  0  0  0  0  0  0  0  0
  -41.2681   55.9114   50.4099 C   0  0  0  0  0  0  0  0  0  0  0  0
  -41.3195   54.7454   51.4099 C   0  0  0  0  0  0  0  0  0  0  0  0
  -42.5346   54.7682   52.3555 C   0  0  0  0  0  0  0  0  0  0  0  0
  -43.8719   54.6915   51.6225 C   0  0  0  0  0  0  0  0  0  0  0  0
  -36.8691   60.7008   62.7449 C   0  0  2  0  0  0  0  0  0  0  0  0
  -35.6676   60.6228   63.6978 C   0  0  1  0  0  0  0  0  0  0  0  0
  -34.6077   59.5817   63.2759 C   0  0  2  0  0  0  0  0  0  0  0  0
  -35.3019   58.2478   63.2843 C   0  0  2  0  0  0  0  0  0  0  0  0
  -36.5404   58.3078   62.4087 C   0  0  1  0  0  0  0  0  0  0  0  0
  -37.0870   56.8902   62.5633 C   0  0  0  0  0  0  0  0  0  0  0  0
  -32.2113   58.3924   63.8628 S   0  0  0  0  0  0  0  0  0  0  0  0
  -41.2958   59.7807   63.9778 H   0  0  0  0  0  0  0  0  0  0  0  0
  -39.2437   62.6238   64.2698 H   0  0  0  0  0  0  0  0  0  0  0  0
  -37.8479   61.7974   65.0516 H   0  0  0  0  0  0  0  0  0  0  0  0
  -38.6677   59.8099   64.6092 H   0  0  0  0  0  0  0  0  0  0  0  0
  -38.8837   61.7234   66.7113 H   0  0  0  0  0  0  0  0  0  0  0  0
  -41.0317   61.2430   65.9299 H   0  0  0  0  0  0  0  0  0  0  0  0
  -40.3128   58.4462   66.6402 H   0  0  0  0  0  0  0  0  0  0  0  0
  -42.6561   59.5355   65.1904 H   0  0  0  0  0  0  0  0  0  0  0  0
  -35.7286   62.5534   63.9341 H   0  0  0  0  0  0  0  0  0  0  0  0
  -43.6315   57.3885   65.5458 H   0  0  0  0  0  0  0  0  0  0  0  0
  -42.6481   57.3047   67.0271 H   0  0  0  0  0  0  0  0  0  0  0  0
  -40.8249   56.3674   65.7982 H   0  0  0  0  0  0  0  0  0  0  0  0
  -41.8189   56.4623   64.3082 H   0  0  0  0  0  0  0  0  0  0  0  0
  -33.2132   56.7835   64.5993 H   0  0  0  0  0  0  0  0  0  0  0  0
  -43.3079   54.7993   65.1506 H   0  0  0  0  0  0  0  0  0  0  0  0
  -42.3962   54.7055   66.6495 H   0  0  0  0  0  0  0  0  0  0  0  0
  -34.8342   57.8293   65.1553 H   0  0  0  0  0  0  0  0  0  0  0  0
  -40.4330   53.9363   65.4225 H   0  0  0  0  0  0  0  0  0  0  0  0
  -41.3909   54.0346   63.9128 H   0  0  0  0  0  0  0  0  0  0  0  0
  -41.1182   51.7352   64.6457 H   0  0  0  0  0  0  0  0  0  0  0  0
  -42.8130   52.2859   64.6672 H   0  0  0  0  0  0  0  0  0  0  0  0
  -38.5288   55.8145   61.8173 H   0  0  0  0  0  0  0  0  0  0  0  0
  -42.3140   50.8735   66.5865 H   0  0  0  0  0  0  0  0  0  0  0  0
  -42.7254   52.5414   67.0433 H   0  0  0  0  0  0  0  0  0  0  0  0
  -40.4013   53.0398   67.4228 H   0  0  0  0  0  0  0  0  0  0  0  0
  -39.9807   51.3774   66.9488 H   0  0  0  0  0  0  0  0  0  0  0  0
  -41.5977   52.1466   69.3328 H   0  0  0  0  0  0  0  0  0  0  0  0
  -39.8770   51.6302   69.2965 H   0  0  0  0  0  0  0  0  0  0  0  0
  -42.1986   49.9234   68.5828 H   0  0  0  0  0  0  0  0  0  0  0  0
  -41.2840   49.9011   70.1103 H   0  0  0  0  0  0  0  0  0  0  0  0
  -32.0597   58.6087   61.8487 H   0  0  0  0  0  0  0  0  0  0  0  0
  -40.6138   48.0849   68.6530 H   0  0  0  0  0  0  0  0  0  0  0  0
  -39.3076   49.2752   68.9401 H   0  0  0  0  0  0  0  0  0  0  0  0
  -39.2907   48.4587   66.6498 H   0  0  0  0  0  0  0  0  0  0  0  0
  -39.6107   50.1846   66.7590 H   0  0  0  0  0  0  0  0  0  0  0  0
  -41.9789   49.7773   66.4865 H   0  0  0  0  0  0  0  0  0  0  0  0
  -41.6092   48.0204   66.3651 H   0  0  0  0  0  0  0  0  0  0  0  0
  -40.8654   50.0995   64.3777 H   0  0  0  0  0  0  0  0  0  0  0  0
  -42.1339   48.9094   64.2114 H   0  0  0  0  0  0  0  0  0  0  0  0
  -40.4649   48.4003   64.3036 H   0  0  0  0  0  0  0  0  0  0  0  0
  -41.8948   60.6723   60.7328 H   0  0  0  0  0  0  0  0  0  0  0  0
  -42.5815   60.0750   62.1995 H   0  0  0  0  0  0  0  0  0  0  0  0
  -41.2654   57.9799   61.9517 H   0  0  0  0  0  0  0  0  0  0  0  0
  -40.5783   58.6050   60.4674 H   0  0  0  0  0  0  0  0  0  0  0  0
  -42.7929   58.7187   59.4795 H   0  0  0  0  0  0  0  0  0  0  0  0
  -43.4518   58.0584   61.0154 H   0  0  0  0  0  0  0  0  0  0  0  0
  -43.4019   56.3968   59.2575 H   0  0  0  0  0  0  0  0  0  0  0  0
  -42.4072   55.9724   60.6130 H   0  0  0  0  0  0  0  0  0  0  0  0
  -41.2065   55.6135   58.5015 H   0  0  0  0  0  0  0  0  0  0  0  0
  -40.4508   56.8990   59.4575 H   0  0  0  0  0  0  0  0  0  0  0  0
  -40.5317   57.4829   57.1021 H   0  0  0  0  0  0  0  0  0  0  0  0
  -41.5337   58.5574   58.1118 H   0  0  0  0  0  0  0  0  0  0  0  0
  -43.5244   57.4414   57.3777 H   0  0  0  0  0  0  0  0  0  0  0  0
  -42.5439   56.3447   56.3891 H   0  0  0  0  0  0  0  0  0  0  0  0
  -42.7618   59.3146   55.9732 H   0  0  0  0  0  0  0  0  0  0  0  0
  -43.5766   58.0864   55.0190 H   0  0  0  0  0  0  0  0  0  0  0  0
  -41.4328   57.1679   54.3478 H   0  0  0  0  0  0  0  0  0  0  0  0
  -40.6309   58.4354   55.3228 H   0  0  0  0  0  0  0  0  0  0  0  0
  -41.4444   60.1217   53.8622 H   0  0  0  0  0  0  0  0  0  0  0  0
  -42.2795   58.8969   52.8986 H   0  0  0  0  0  0  0  0  0  0  0  0
  -39.3301   59.1039   53.2790 H   0  0  0  0  0  0  0  0  0  0  0  0
  -40.2851   59.5781   51.8333 H   0  0  0  0  0  0  0  0  0  0  0  0
  -39.9713   56.7814   52.8240 H   0  0  0  0  0  0  0  0  0  0  0  0
  -39.0941   57.4714   51.4913 H   0  0  0  0  0  0  0  0  0  0  0  0
  -41.1974   58.0123   50.3867 H   0  0  0  0  0  0  0  0  0  0  0  0
  -42.0343   57.2304   51.7976 H   0  0  0  0  0  0  0  0  0  0  0  0
  -40.4037   55.8021   49.7888 H   0  0  0  0  0  0  0  0  0  0  0  0
  -42.1593   55.8929   49.8180 H   0  0  0  0  0  0  0  0  0  0  0  0
  -40.4315   54.7769   52.0060 H   0  0  0  0  0  0  0  0  0  0  0  0
  -41.4024   53.8503   50.8295 H   0  0  0  0  0  0  0  0  0  0  0  0
  -42.5084   55.6767   52.9202 H   0  0  0  0  0  0  0  0  0  0  0  0
  -42.4658   53.9027   52.9808 H   0  0  0  0  0  0  0  0  0  0  0  0
  -43.9782   55.5437   50.9843 H   0  0  0  0  0  0  0  0  0  0  0  0
  -44.6693   54.6785   52.3358 H   0  0  0  0  0  0  0  0  0  0  0  0
  -43.9053   53.7986   51.0339 H   0  0  0  0  0  0  0  0  0  0  0  0
  -36.5129   60.9958   61.7800 H   0  0  0  0  0  0  0  0  0  0  0  0
  -36.0149   60.3239   64.6648 H   0  0  0  0  0  0  0  0  0  0  0  0
  -34.2252   59.9085   62.3316 H   0  0  0  0  0  0  0  0  0  0  0  0
  -34.6362   57.5092   62.8890 H   0  0  0  0  0  0  0  0  0  0  0  0
  -36.3408   58.5664   61.3898 H   0  0  0  0  0  0  0  0  0  0  0  0
  -36.3242   56.1847   62.3077 H   0  0  0  0  0  0  0  0  0  0  0  0
  -37.3927   56.7362   63.5771 H   0  0  0  0  0  0  0  0  0  0  0  0
  1  4  1  0  0  0  0
  1 31  1  0  0  0  0
  1 56  1  0  0  0  0
  2  3  1  0  0  0  0
  2  4  1  0  0  0  0
  2 57  1  0  0  0  0
  2 58  1  0  0  0  0
  3 49  1  0  0  0  0
  4  6  1  0  0  0  0
  4 59  1  1  0  0  0
  5  6  1  0  0  0  0
  5 60  1  0  0  0  0
  6  8  1  0  0  0  0
  6 61  1  6  0  0  0
  7 31  2  0  0  0  0
  8  9  2  0  0  0  0
  8 62  1  0  0  0  0
  9 11  1  0  0  0  0
  9 63  1  0  0  0  0
 10 50  1  0  0  0  0
 10 64  1  0  0  0  0
 11 13  1  0  0  0  0
 11 65  1  0  0  0  0
 11 66  1  0  0  0  0
 12 51  1  0  0  0  0
 12 55  1  0  0  0  0
 13 15  1  0  0  0  0
 13 67  1  0  0  0  0
 13 68  1  0  0  0  0
 14 55  1  0  0  0  0
 14 69  1  0  0  0  0
 15 17  1  0  0  0  0
 15 70  1  0  0  0  0
 15 71  1  0  0  0  0
 16 52  1  0  0  0  0
 16 72  1  0  0  0  0
 17 19  1  0  0  0  0
 17 73  1  0  0  0  0
 17 74  1  0  0  0  0
 18 49  1  0  0  0  0
 18 53  1  0  0  0  0
 19 21  1  0  0  0  0
 19 75  1  0  0  0  0
 19 76  1  0  0  0  0
 20 54  1  0  0  0  0
 20 77  1  0  0  0  0
 21 22  1  0  0  0  0
 21 78  1  0  0  0  0
 21 79  1  0  0  0  0
 22 23  1  0  0  0  0
 22 80  1  0  0  0  0
 22 81  1  0  0  0  0
 23 25  1  0  0  0  0
 23 82  1  0  0  0  0
 23 83  1  0  0  0  0
 24 55  1  0  0  0  0
 25 27  1  0  0  0  0
 25 84  1  0  0  0  0
 25 85  1  0  0  0  0
 26 55  1  0  0  0  0
 26 86  1  0  0  0  0
 27 28  1  0  0  0  0
 27 87  1  0  0  0  0
 27 88  1  0  0  0  0
 28 29  1  0  0  0  0
 28 89  1  0  0  0  0
 28 90  1  0  0  0  0
 29 30  1  0  0  0  0
 29 91  1  0  0  0  0
 29 92  1  0  0  0  0
 30 93  1  0  0  0  0
 30 94  1  0  0  0  0
 30 95  1  0  0  0  0
 31 32  1  0  0  0  0
 32 33  1  0  0  0  0
 32 96  1  0  0  0  0
 32 97  1  0  0  0  0
 33 34  1  0  0  0  0
 33 98  1  0  0  0  0
 33 99  1  0  0  0  0
 34 35  1  0  0  0  0
 34100  1  0  0  0  0
 34101  1  0  0  0  0
 35 36  1  0  0  0  0
 35102  1  0  0  0  0
 35103  1  0  0  0  0
 36 37  1  0  0  0  0
 36104  1  0  0  0  0
 36105  1  0  0  0  0
 37 38  1  0  0  0  0
 37106  1  0  0  0  0
 37107  1  0  0  0  0
 38 39  1  0  0  0  0
 38108  1  0  0  0  0
 38109  1  0  0  0  0
 39 40  1  0  0  0  0
 39110  1  0  0  0  0
 39111  1  0  0  0  0
 40 41  1  0  0  0  0
 40112  1  0  0  0  0
 40113  1  0  0  0  0
 41 42  1  0  0  0  0
 41114  1  0  0  0  0
 41115  1  0  0  0  0
 42 43  1  0  0  0  0
 42116  1  0  0  0  0
 42117  1  0  0  0  0
 43 44  1  0  0  0  0
 43118  1  0  0  0  0
 43119  1  0  0  0  0
 44 45  1  0  0  0  0
 44120  1  0  0  0  0
 44121  1  0  0  0  0
 45 46  1  0  0  0  0
 45122  1  0  0  0  0
 45123  1  0  0  0  0
 46 47  1  0  0  0  0
 46124  1  0  0  0  0
 46125  1  0  0  0  0
 47 48  1  0  0  0  0
 47126  1  0  0  0  0
 47127  1  0  0  0  0
 48128  1  0  0  0  0
 48129  1  0  0  0  0
 48130  1  0  0  0  0
 49 50  1  0  0  0  0
 49131  1  6  0  0  0
 50 51  1  0  0  0  0
 50132  1  1  0  0  0
 51 52  1  0  0  0  0
 51133  1  6  0  0  0
 52 53  1  0  0  0  0
 52134  1  6  0  0  0
 53 54  1  0  0  0  0
 53135  1  6  0  0  0
 54136  1  0  0  0  0
 54137  1  0  0  0  0
M  CHG  1  24  -1
M  END
$$$$