/media/chris/experiments/cd1a-new-docking/inputs/ligands/1onq_ligand.pdb
 OpenBabel06222310383D

137137  0  0  1  0  0  0  0  0999 V2000
  -40.4920   60.2280   63.6270 N   0  0  0  0  0  0  0  0  0  0  0  0
  -38.5950   61.7730   64.2860 C   0  0  0  0  0  0  0  0  0  0  0  0
  -37.5441   62.0867   65.2349 O   0  0  0  0  0  0  0  0  0  0  0  0
  -39.4590   60.5300   64.5980 C   0  0  1  0  0  0  0  0  0  0  0  0
  -40.7577   59.2290   66.0180 O   0  0  0  0  0  0  0  0  0  0  0  0
  -40.2280   60.5370   65.9080 C   0  0  2  0  0  0  0  0  0  0  0  0
  -41.4675   58.3885   64.5282 O   0  0  0  0  0  0  0  0  0  0  0  0
  -41.3266   61.6007   65.8452 C   0  0  0  0  0  0  0  0  0  0  0  0
  -42.3197   61.5746   64.9400 C   0  0  0  0  0  0  0  0  0  0  0  0
  -38.2938   64.5178   63.9293 O   0  0  0  0  0  0  0  0  0  0  0  0
  -43.3792   62.6750   64.9418 C   0  0  0  0  0  0  0  0  0  0  0  0
  -37.0206   67.1074   64.5954 O   0  0  0  0  0  0  0  0  0  0  0  0
  -43.9635   62.9777   63.5543 C   0  0  0  0  0  0  0  0  0  0  0  0
  -39.4381   66.6435   63.7846 O   0  0  0  0  0  0  0  0  0  0  0  0
  -42.9490   63.4311   62.4883 C   0  0  0  0  0  0  0  0  0  0  0  0
  -36.0508   66.2424   66.9942 O   0  0  0  0  0  0  0  0  0  0  0  0
  -43.6580   63.7216   61.1436 C   0  0  0  0  0  0  0  0  0  0  0  0
  -35.6795   63.3761   66.0987 O   0  0  0  0  0  0  0  0  0  0  0  0
  -44.7282   64.8416   61.1883 C   0  0  0  0  0  0  0  0  0  0  0  0
  -33.0018   65.8439   66.8253 O   0  0  0  0  0  0  0  0  0  0  0  0
  -44.1790   66.2263   61.6052 C   0  0  0  0  0  0  0  0  0  0  0  0
  -43.0966   66.7744   60.6501 C   0  0  0  0  0  0  0  0  0  0  0  0
  -42.5369   68.1392   61.0689 C   0  0  0  0  0  0  0  0  0  0  0  0
  -37.7256   67.2310   62.1688 O   0  5  0  0  0  0  0  0  0  0  0  0
  -41.8518   68.1940   62.4327 C   0  0  0  0  0  0  0  0  0  0  0  0
  -38.6691   68.9297   63.6175 O   0  0  0  0  0  0  0  0  0  0  0  0
  -42.7639   67.7906   63.6080 C   0  0  0  0  0  0  0  0  0  0  0  0
  -42.1088   67.8518   64.9961 C   0  0  0  0  0  0  0  0  0  0  0  0
  -43.0911   67.4167   66.0874 C   0  0  0  0  0  0  0  0  0  0  0  0
  -42.5723   67.4474   67.5141 C   0  0  0  0  0  0  0  0  0  0  0  0
  -41.3839   59.2282   63.6532 C   0  0  0  0  0  0  0  0  0  0  0  0
  -42.3351   59.1918   62.4940 C   0  0  0  0  0  0  0  0  0  0  0  0
  -43.2627   58.0001   62.7320 C   0  0  0  0  0  0  0  0  0  0  0  0
  -44.2595   57.8773   61.5821 C   0  0  0  0  0  0  0  0  0  0  0  0
  -45.2569   56.7491   61.6863 C   0  0  0  0  0  0  0  0  0  0  0  0
  -44.4706   55.4444   61.7605 C   0  0  0  0  0  0  0  0  0  0  0  0
  -43.5748   55.2213   60.5347 C   0  0  0  0  0  0  0  0  0  0  0  0
  -42.7774   53.9046   60.5656 C   0  0  0  0  0  0  0  0  0  0  0  0
  -41.8742   53.7204   59.3263 C   0  0  0  0  0  0  0  0  0  0  0  0
  -41.1197   52.3899   59.4010 C   0  0  0  0  0  0  0  0  0  0  0  0
  -42.0032   51.1491   59.4459 C   0  0  0  0  0  0  0  0  0  0  0  0
  -41.1914   49.8654   59.5366 C   0  0  0  0  0  0  0  0  0  0  0  0
  -41.9956   48.5638   59.5699 C   0  0  0  0  0  0  0  0  0  0  0  0
  -42.9183   48.6054   60.7805 C   0  0  0  0  0  0  0  0  0  0  0  0
  -42.3008   48.7530   62.1633 C   0  0  0  0  0  0  0  0  0  0  0  0
  -41.3358   47.5944   62.4611 C   0  0  0  0  0  0  0  0  0  0  0  0
  -41.9818   46.1974   62.4148 C   0  0  0  0  0  0  0  0  0  0  0  0
  -43.1291   46.0293   63.4082 C   0  0  0  0  0  0  0  0  0  0  0  0
  -36.6675   63.2597   65.0462 C   0  0  2  0  0  0  0  0  0  0  0  0
  -37.3701   64.6228   64.9685 C   0  0  1  0  0  0  0  0  0  0  0  0
  -36.4160   65.7955   64.6529 C   0  0  2  0  0  0  0  0  0  0  0  0
  -35.4210   65.8428   65.7794 C   0  0  2  0  0  0  0  0  0  0  0  0
  -34.7568   64.4868   65.9355 C   0  0  1  0  0  0  0  0  0  0  0  0
  -33.8159   64.7462   67.1101 C   0  0  0  0  0  0  0  0  0  0  0  0
  -38.2433   67.5036   63.5371 S   0  0  0  0  0  0  0  0  0  0  0  0
  -40.5449   60.8326   62.8518 H   0  0  0  0  0  0  0  0  0  0  0  0
  -38.1357   61.6183   63.3320 H   0  0  0  0  0  0  0  0  0  0  0  0
  -39.2690   62.6030   64.3261 H   0  0  0  0  0  0  0  0  0  0  0  0
  -38.6677   59.8099   64.6092 H   0  0  0  0  0  0  0  0  0  0  0  0
  -40.0308   58.5878   66.0547 H   0  0  0  0  0  0  0  0  0  0  0  0
  -39.6247   60.7776   66.7583 H   0  0  0  0  0  0  0  0  0  0  0  0
  -41.3038   62.3732   66.5291 H   0  0  0  0  0  0  0  0  0  0  0  0
  -42.3663   60.8129   64.2453 H   0  0  0  0  0  0  0  0  0  0  0  0
  -38.9026   63.7849   64.1107 H   0  0  0  0  0  0  0  0  0  0  0  0
  -42.9345   63.5705   65.3229 H   0  0  0  0  0  0  0  0  0  0  0  0
  -44.1877   62.3270   65.5504 H   0  0  0  0  0  0  0  0  0  0  0  0
  -44.6920   63.7534   63.6662 H   0  0  0  0  0  0  0  0  0  0  0  0
  -44.3669   62.0525   63.1989 H   0  0  0  0  0  0  0  0  0  0  0  0
  -39.1800   65.7097   63.7362 H   0  0  0  0  0  0  0  0  0  0  0  0
  -42.2238   62.6579   62.3428 H   0  0  0  0  0  0  0  0  0  0  0  0
  -42.4738   64.3282   62.8265 H   0  0  0  0  0  0  0  0  0  0  0  0
  -36.4678   67.1097   66.8721 H   0  0  0  0  0  0  0  0  0  0  0  0
  -44.1357   62.8205   60.8203 H   0  0  0  0  0  0  0  0  0  0  0  0
  -42.8964   64.0663   60.4757 H   0  0  0  0  0  0  0  0  0  0  0  0
  -45.4844   64.5555   61.8891 H   0  0  0  0  0  0  0  0  0  0  0  0
  -45.1050   64.9471   60.1924 H   0  0  0  0  0  0  0  0  0  0  0  0
  -32.4053   66.0066   67.5727 H   0  0  0  0  0  0  0  0  0  0  0  0
  -43.7551   66.1414   62.5839 H   0  0  0  0  0  0  0  0  0  0  0  0
  -45.0001   66.9117   61.5756 H   0  0  0  0  0  0  0  0  0  0  0  0
  -43.5247   66.8701   59.6741 H   0  0  0  0  0  0  0  0  0  0  0  0
  -42.2809   66.0823   60.6727 H   0  0  0  0  0  0  0  0  0  0  0  0
  -43.3493   68.8354   61.0828 H   0  0  0  0  0  0  0  0  0  0  0  0
  -41.7743   68.3688   60.3544 H   0  0  0  0  0  0  0  0  0  0  0  0
  -41.5117   69.1949   62.5986 H   0  0  0  0  0  0  0  0  0  0  0  0
  -41.0499   67.4861   62.4055 H   0  0  0  0  0  0  0  0  0  0  0  0
  -39.0082   69.1162   64.5069 H   0  0  0  0  0  0  0  0  0  0  0  0
  -43.0934   66.7863   63.4415 H   0  0  0  0  0  0  0  0  0  0  0  0
  -43.5603   68.5050   63.6241 H   0  0  0  0  0  0  0  0  0  0  0  0
  -41.7929   68.8556   65.1899 H   0  0  0  0  0  0  0  0  0  0  0  0
  -41.2712   67.1860   65.0069 H   0  0  0  0  0  0  0  0  0  0  0  0
  -43.3930   66.4130   65.8723 H   0  0  0  0  0  0  0  0  0  0  0  0
  -43.8845   68.1340   66.0580 H   0  0  0  0  0  0  0  0  0  0  0  0
  -41.7695   66.7475   67.6168 H   0  0  0  0  0  0  0  0  0  0  0  0
  -43.3622   67.1853   68.1866 H   0  0  0  0  0  0  0  0  0  0  0  0
  -42.2196   68.4310   67.7443 H   0  0  0  0  0  0  0  0  0  0  0  0
  -41.7970   59.0644   61.5780 H   0  0  0  0  0  0  0  0  0  0  0  0
  -42.8886   60.1044   62.4185 H   0  0  0  0  0  0  0  0  0  0  0  0
  -43.7952   58.1431   63.6490 H   0  0  0  0  0  0  0  0  0  0  0  0
  -42.6784   57.1055   62.7877 H   0  0  0  0  0  0  0  0  0  0  0  0
  -43.7020   57.7386   60.6794 H   0  0  0  0  0  0  0  0  0  0  0  0
  -44.8388   58.7766   61.6062 H   0  0  0  0  0  0  0  0  0  0  0  0
  -45.8927   56.7435   60.8258 H   0  0  0  0  0  0  0  0  0  0  0  0
  -45.8700   56.8684   62.5550 H   0  0  0  0  0  0  0  0  0  0  0  0
  -45.1627   54.6314   61.8311 H   0  0  0  0  0  0  0  0  0  0  0  0
  -43.8348   55.4990   62.6194 H   0  0  0  0  0  0  0  0  0  0  0  0
  -42.8800   56.0328   60.4749 H   0  0  0  0  0  0  0  0  0  0  0  0
  -44.2240   55.1673   59.6858 H   0  0  0  0  0  0  0  0  0  0  0  0
  -43.4677   53.0882   60.6094 H   0  0  0  0  0  0  0  0  0  0  0  0
  -42.1412   53.9343   61.4254 H   0  0  0  0  0  0  0  0  0  0  0  0
  -41.1679   54.5231   59.2838 H   0  0  0  0  0  0  0  0  0  0  0  0
  -42.4878   53.7198   58.4498 H   0  0  0  0  0  0  0  0  0  0  0  0
  -40.5164   52.3998   60.2847 H   0  0  0  0  0  0  0  0  0  0  0  0
  -40.5502   52.3185   58.4980 H   0  0  0  0  0  0  0  0  0  0  0  0
  -42.5981   51.1180   58.5571 H   0  0  0  0  0  0  0  0  0  0  0  0
  -42.6134   51.2132   60.3225 H   0  0  0  0  0  0  0  0  0  0  0  0
  -40.6055   49.9111   60.4308 H   0  0  0  0  0  0  0  0  0  0  0  0
  -40.6144   49.8250   58.6364 H   0  0  0  0  0  0  0  0  0  0  0  0
  -41.3308   47.7292   59.6496 H   0  0  0  0  0  0  0  0  0  0  0  0
  -42.5684   48.4601   58.6720 H   0  0  0  0  0  0  0  0  0  0  0  0
  -43.4787   47.6939   60.7812 H   0  0  0  0  0  0  0  0  0  0  0  0
  -43.4803   49.5064   60.6488 H   0  0  0  0  0  0  0  0  0  0  0  0
  -43.0803   48.7565   62.8963 H   0  0  0  0  0  0  0  0  0  0  0  0
  -41.7521   49.6710   62.1959 H   0  0  0  0  0  0  0  0  0  0  0  0
  -40.9283   47.7419   63.4394 H   0  0  0  0  0  0  0  0  0  0  0  0
  -40.5928   47.6118   61.6913 H   0  0  0  0  0  0  0  0  0  0  0  0
  -41.2307   45.4684   62.6369 H   0  0  0  0  0  0  0  0  0  0  0  0
  -42.3904   46.0695   61.4342 H   0  0  0  0  0  0  0  0  0  0  0  0
  -42.7587   46.1507   64.4047 H   0  0  0  0  0  0  0  0  0  0  0  0
  -43.5528   45.0525   63.3018 H   0  0  0  0  0  0  0  0  0  0  0  0
  -43.8797   46.7668   63.2144 H   0  0  0  0  0  0  0  0  0  0  0  0
  -36.2294   63.0536   64.0919 H   0  0  0  0  0  0  0  0  0  0  0  0
  -37.8075   64.8385   65.9209 H   0  0  0  0  0  0  0  0  0  0  0  0
  -36.0169   65.6040   63.6787 H   0  0  0  0  0  0  0  0  0  0  0  0
  -34.6703   66.5692   65.5474 H   0  0  0  0  0  0  0  0  0  0  0  0
  -34.2432   64.1505   65.0592 H   0  0  0  0  0  0  0  0  0  0  0  0
  -34.3913   64.9482   67.9892 H   0  0  0  0  0  0  0  0  0  0  0  0
  -33.2043   63.8833   67.2723 H   0  0  0  0  0  0  0  0  0  0  0  0
  1  4  1  0  0  0  0
  1 31  1  0  0  0  0
  1 56  1  0  0  0  0
  2  3  1  0  0  0  0
  2  4  1  0  0  0  0
  2 57  1  0  0  0  0
  2 58  1  0  0  0  0
  3 49  1  0  0  0  0
  4  6  1  0  0  0  0
  4 59  1  1  0  0  0
  5  6  1  0  0  0  0
  5 60  1  0  0  0  0
  6  8  1  0  0  0  0
  6 61  1  1  0  0  0
  7 31  2  0  0  0  0
  8  9  2  0  0  0  0
  8 62  1  0  0  0  0
  9 11  1  0  0  0  0
  9 63  1  0  0  0  0
 10 50  1  0  0  0  0
 10 64  1  0  0  0  0
 11 13  1  0  0  0  0
 11 65  1  0  0  0  0
 11 66  1  0  0  0  0
 12 51  1  0  0  0  0
 12 55  1  0  0  0  0
 13 15  1  0  0  0  0
 13 67  1  0  0  0  0
 13 68  1  0  0  0  0
 14 55  1  0  0  0  0
 14 69  1  0  0  0  0
 15 17  1  0  0  0  0
 15 70  1  0  0  0  0
 15 71  1  0  0  0  0
 16 52  1  0  0  0  0
 16 72  1  0  0  0  0
 17 19  1  0  0  0  0
 17 73  1  0  0  0  0
 17 74  1  0  0  0  0
 18 49  1  0  0  0  0
 18 53  1  0  0  0  0
 19 21  1  0  0  0  0
 19 75  1  0  0  0  0
 19 76  1  0  0  0  0
 20 54  1  0  0  0  0
 20 77  1  0  0  0  0
 21 22  1  0  0  0  0
 21 78  1  0  0  0  0
 21 79  1  0  0  0  0
 22 23  1  0  0  0  0
 22 80  1  0  0  0  0
 22 81  1  0  0  0  0
 23 25  1  0  0  0  0
 23 82  1  0  0  0  0
 23 83  1  0  0  0  0
 24 55  1  0  0  0  0
 25 27  1  0  0  0  0
 25 84  1  0  0  0  0
 25 85  1  0  0  0  0
 26 55  1  0  0  0  0
 26 86  1  0  0  0  0
 27 28  1  0  0  0  0
 27 87  1  0  0  0  0
 27 88  1  0  0  0  0
 28 29  1  0  0  0  0
 28 89  1  0  0  0  0
 28 90  1  0  0  0  0
 29 30  1  0  0  0  0
 29 91  1  0  0  0  0
 29 92  1  0  0  0  0
 30 93  1  0  0  0  0
 30 94  1  0  0  0  0
 30 95  1  0  0  0  0
 31 32  1  0  0  0  0
 32 33  1  0  0  0  0
 32 96  1  0  0  0  0
 32 97  1  0  0  0  0
 33 34  1  0  0  0  0
 33 98  1  0  0  0  0
 33 99  1  0  0  0  0
 34 35  1  0  0  0  0
 34100  1  0  0  0  0
 34101  1  0  0  0  0
 35 36  1  0  0  0  0
 35102  1  0  0  0  0
 35103  1  0  0  0  0
 36 37  1  0  0  0  0
 36104  1  0  0  0  0
 36105  1  0  0  0  0
 37 38  1  0  0  0  0
 37106  1  0  0  0  0
 37107  1  0  0  0  0
 38 39  1  0  0  0  0
 38108  1  0  0  0  0
 38109  1  0  0  0  0
 39 40  1  0  0  0  0
 39110  1  0  0  0  0
 39111  1  0  0  0  0
 40 41  1  0  0  0  0
 40112  1  0  0  0  0
 40113  1  0  0  0  0
 41 42  1  0  0  0  0
 41114  1  0  0  0  0
 41115  1  0  0  0  0
 42 43  1  0  0  0  0
 42116  1  0  0  0  0
 42117  1  0  0  0  0
 43 44  1  0  0  0  0
 43118  1  0  0  0  0
 43119  1  0  0  0  0
 44 45  1  0  0  0  0
 44120  1  0  0  0  0
 44121  1  0  0  0  0
 45 46  1  0  0  0  0
 45122  1  0  0  0  0
 45123  1  0  0  0  0
 46 47  1  0  0  0  0
 46124  1  0  0  0  0
 46125  1  0  0  0  0
 47 48  1  0  0  0  0
 47126  1  0  0  0  0
 47127  1  0  0  0  0
 48128  1  0  0  0  0
 48129  1  0  0  0  0
 48130  1  0  0  0  0
 49 50  1  0  0  0  0
 49131  1  6  0  0  0
 50 51  1  0  0  0  0
 50132  1  1  0  0  0
 51 52  1  0  0  0  0
 51133  1  6  0  0  0
 52 53  1  0  0  0  0
 52134  1  6  0  0  0
 53 54  1  0  0  0  0
 53135  1  6  0  0  0
 54136  1  0  0  0  0
 54137  1  0  0  0  0
M  CHG  1  24  -1
M  END
$$$$