/media/chris/experiments/cd1a-new-docking/inputs/ligands/1onq_ligand.pdb
 OpenBabel06222310383D

137137  0  0  1  0  0  0  0  0999 V2000
  -40.4920   60.2280   63.6270 N   0  0  0  0  0  0  0  0  0  0  0  0
  -38.5950   61.7730   64.2860 C   0  0  0  0  0  0  0  0  0  0  0  0
  -37.5441   62.0867   65.2349 O   0  0  0  0  0  0  0  0  0  0  0  0
  -39.4590   60.5300   64.5980 C   0  0  1  0  0  0  0  0  0  0  0  0
  -41.2116   61.5409   65.7392 O   0  0  0  0  0  0  0  0  0  0  0  0
  -40.2280   60.5370   65.9080 C   0  0  2  0  0  0  0  0  0  0  0  0
  -40.9980   62.2858   62.8166 O   0  0  0  0  0  0  0  0  0  0  0  0
  -39.2689   60.8567   67.0571 C   0  0  0  0  0  0  0  0  0  0  0  0
  -39.4395   60.3873   68.3048 C   0  0  0  0  0  0  0  0  0  0  0  0
  -38.2938   64.5178   63.9293 O   0  0  0  0  0  0  0  0  0  0  0  0
  -38.4375   60.7530   69.3983 C   0  0  0  0  0  0  0  0  0  0  0  0
  -37.0206   67.1074   64.5954 O   0  0  0  0  0  0  0  0  0  0  0  0
  -38.7542   60.1296   70.7655 C   0  0  0  0  0  0  0  0  0  0  0  0
  -35.5491   68.3969   62.8957 O   0  0  0  0  0  0  0  0  0  0  0  0
  -38.7741   58.5904   70.8077 C   0  0  0  0  0  0  0  0  0  0  0  0
  -36.0508   66.2424   66.9942 O   0  0  0  0  0  0  0  0  0  0  0  0
  -37.3934   58.0123   70.4141 C   0  0  0  0  0  0  0  0  0  0  0  0
  -35.6795   63.3761   66.0987 O   0  0  0  0  0  0  0  0  0  0  0  0
  -37.3018   56.4654   70.4056 C   0  0  0  0  0  0  0  0  0  0  0  0
  -34.5625   65.0109   68.2596 O   0  0  0  0  0  0  0  0  0  0  0  0
  -38.2689   55.7790   69.4125 C   0  0  0  0  0  0  0  0  0  0  0  0
  -38.0306   56.1807   67.9408 C   0  0  0  0  0  0  0  0  0  0  0  0
  -36.6326   55.8236   67.4217 C   0  0  0  0  0  0  0  0  0  0  0  0
  -35.0811   68.5856   65.2694 O   0  5  0  0  0  0  0  0  0  0  0  0
  -36.2697   54.3402   67.4363 C   0  0  0  0  0  0  0  0  0  0  0  0
  -36.9848   69.7361   64.3068 O   0  0  0  0  0  0  0  0  0  0  0  0
  -37.1933   53.4614   66.5698 C   0  0  0  0  0  0  0  0  0  0  0  0
  -38.6800   53.4954   66.9552 C   0  0  0  0  0  0  0  0  0  0  0  0
  -39.5045   52.5784   66.0472 C   0  0  0  0  0  0  0  0  0  0  0  0
  -40.9989   52.5324   66.3119 C   0  0  0  0  0  0  0  0  0  0  0  0
  -41.1606   61.0813   62.8393 C   0  0  0  0  0  0  0  0  0  0  0  0
  -42.1710   60.4499   61.9282 C   0  0  0  0  0  0  0  0  0  0  0  0
  -42.7946   61.5868   61.1184 C   0  0  0  0  0  0  0  0  0  0  0  0
  -43.4490   62.5977   62.0570 C   0  0  0  0  0  0  0  0  0  0  0  0
  -44.1249   63.7750   61.3970 C   0  0  0  0  0  0  0  0  0  0  0  0
  -44.6912   64.6603   62.5022 C   0  0  0  0  0  0  0  0  0  0  0  0
  -45.4245   65.8932   61.9571 C   0  0  0  0  0  0  0  0  0  0  0  0
  -45.9959   66.8211   63.0447 C   0  0  0  0  0  0  0  0  0  0  0  0
  -47.0082   66.1100   63.9695 C   0  0  0  0  0  0  0  0  0  0  0  0
  -46.3429   64.9400   64.6999 C   0  0  0  0  0  0  0  0  0  0  0  0
  -47.2599   64.1551   65.6301 C   0  0  0  0  0  0  0  0  0  0  0  0
  -48.4303   63.5246   64.8899 C   0  0  0  0  0  0  0  0  0  0  0  0
  -48.0683   62.5186   63.7949 C   0  0  0  0  0  0  0  0  0  0  0  0
  -47.3010   61.3712   64.4378 C   0  0  0  0  0  0  0  0  0  0  0  0
  -47.9892   60.5474   65.5162 C   0  0  0  0  0  0  0  0  0  0  0  0
  -47.0533   59.4529   66.0532 C   0  0  0  0  0  0  0  0  0  0  0  0
  -47.6757   58.5572   67.1400 C   0  0  0  0  0  0  0  0  0  0  0  0
  -48.1343   59.3331   68.3726 C   0  0  0  0  0  0  0  0  0  0  0  0
  -36.6675   63.2597   65.0462 C   0  0  2  0  0  0  0  0  0  0  0  0
  -37.3701   64.6228   64.9685 C   0  0  1  0  0  0  0  0  0  0  0  0
  -36.4160   65.7955   64.6529 C   0  0  2  0  0  0  0  0  0  0  0  0
  -35.4210   65.8428   65.7794 C   0  0  2  0  0  0  0  0  0  0  0  0
  -34.7568   64.4868   65.9355 C   0  0  1  0  0  0  0  0  0  0  0  0
  -33.8159   64.7462   67.1101 C   0  0  0  0  0  0  0  0  0  0  0  0
  -36.1639   68.4933   64.2527 S   0  0  0  0  0  0  0  0  0  0  0  0
  -40.7322   59.2777   63.5347 H   0  0  0  0  0  0  0  0  0  0  0  0
  -38.1357   61.6183   63.3320 H   0  0  0  0  0  0  0  0  0  0  0  0
  -39.2690   62.6030   64.3261 H   0  0  0  0  0  0  0  0  0  0  0  0
  -38.6677   59.8099   64.6092 H   0  0  0  0  0  0  0  0  0  0  0  0
  -41.7964   61.3001   65.0038 H   0  0  0  0  0  0  0  0  0  0  0  0
  -40.6791   59.5963   66.1457 H   0  0  0  0  0  0  0  0  0  0  0  0
  -38.4541   61.4602   66.8650 H   0  0  0  0  0  0  0  0  0  0  0  0
  -40.2455   59.7813   68.5237 H   0  0  0  0  0  0  0  0  0  0  0  0
  -38.9026   63.7849   64.1107 H   0  0  0  0  0  0  0  0  0  0  0  0
  -38.4305   61.8175   69.5067 H   0  0  0  0  0  0  0  0  0  0  0  0
  -37.4882   60.3653   69.0923 H   0  0  0  0  0  0  0  0  0  0  0  0
  -39.7181   60.4795   71.0712 H   0  0  0  0  0  0  0  0  0  0  0  0
  -37.9584   60.4295   71.4148 H   0  0  0  0  0  0  0  0  0  0  0  0
  -35.0098   67.5924   62.8415 H   0  0  0  0  0  0  0  0  0  0  0  0
  -39.5134   58.2302   70.1231 H   0  0  0  0  0  0  0  0  0  0  0  0
  -39.0057   58.2775   71.8043 H   0  0  0  0  0  0  0  0  0  0  0  0
  -36.4678   67.1097   66.8721 H   0  0  0  0  0  0  0  0  0  0  0  0
  -36.6695   58.3826   71.1096 H   0  0  0  0  0  0  0  0  0  0  0  0
  -37.2180   58.3249   69.4059 H   0  0  0  0  0  0  0  0  0  0  0  0
  -37.5241   56.1105   71.3903 H   0  0  0  0  0  0  0  0  0  0  0  0
  -36.3098   56.2176   70.0902 H   0  0  0  0  0  0  0  0  0  0  0  0
  -33.9627   65.1753   69.0040 H   0  0  0  0  0  0  0  0  0  0  0  0
  -39.2710   56.0446   69.6778 H   0  0  0  0  0  0  0  0  0  0  0  0
  -38.0954   54.7255   69.4826 H   0  0  0  0  0  0  0  0  0  0  0  0
  -38.1627   57.2390   67.8542 H   0  0  0  0  0  0  0  0  0  0  0  0
  -38.7329   55.6311   67.3496 H   0  0  0  0  0  0  0  0  0  0  0  0
  -35.9173   56.3413   68.0260 H   0  0  0  0  0  0  0  0  0  0  0  0
  -36.6264   56.1111   66.3910 H   0  0  0  0  0  0  0  0  0  0  0  0
  -36.3226   53.9906   68.4462 H   0  0  0  0  0  0  0  0  0  0  0  0
  -35.2861   54.2576   67.0232 H   0  0  0  0  0  0  0  0  0  0  0  0
  -37.6937   69.6843   63.6467 H   0  0  0  0  0  0  0  0  0  0  0  0
  -36.8546   52.4493   66.6467 H   0  0  0  0  0  0  0  0  0  0  0  0
  -37.1348   53.8579   65.5777 H   0  0  0  0  0  0  0  0  0  0  0  0
  -39.0426   54.4978   66.8620 H   0  0  0  0  0  0  0  0  0  0  0  0
  -38.7781   53.1530   67.9642 H   0  0  0  0  0  0  0  0  0  0  0  0
  -39.1238   51.5844   66.1563 H   0  0  0  0  0  0  0  0  0  0  0  0
  -39.4026   52.9865   65.0633 H   0  0  0  0  0  0  0  0  0  0  0  0
  -41.1760   52.1310   67.2879 H   0  0  0  0  0  0  0  0  0  0  0  0
  -41.4719   51.9119   65.5798 H   0  0  0  0  0  0  0  0  0  0  0  0
  -41.4019   53.5220   66.2548 H   0  0  0  0  0  0  0  0  0  0  0  0
  -42.9228   59.9482   62.5008 H   0  0  0  0  0  0  0  0  0  0  0  0
  -41.7149   59.7236   61.2883 H   0  0  0  0  0  0  0  0  0  0  0  0
  -43.5344   61.1866   60.4570 H   0  0  0  0  0  0  0  0  0  0  0  0
  -42.0294   62.0764   60.5530 H   0  0  0  0  0  0  0  0  0  0  0  0
  -42.6900   62.9789   62.7077 H   0  0  0  0  0  0  0  0  0  0  0  0
  -44.2283   62.0624   62.5582 H   0  0  0  0  0  0  0  0  0  0  0  0
  -44.9155   63.4331   60.7623 H   0  0  0  0  0  0  0  0  0  0  0  0
  -43.4270   64.3217   60.7979 H   0  0  0  0  0  0  0  0  0  0  0  0
  -43.8849   64.9890   63.1242 H   0  0  0  0  0  0  0  0  0  0  0  0
  -45.4021   64.0778   63.0501 H   0  0  0  0  0  0  0  0  0  0  0  0
  -46.2342   65.5576   61.3433 H   0  0  0  0  0  0  0  0  0  0  0  0
  -44.7015   66.4653   61.4141 H   0  0  0  0  0  0  0  0  0  0  0  0
  -46.4877   67.6434   62.5683 H   0  0  0  0  0  0  0  0  0  0  0  0
  -45.1775   67.1452   63.6530 H   0  0  0  0  0  0  0  0  0  0  0  0
  -47.8219   65.7402   63.3815 H   0  0  0  0  0  0  0  0  0  0  0  0
  -47.3639   66.8116   64.6950 H   0  0  0  0  0  0  0  0  0  0  0  0
  -45.5341   65.3293   65.2823 H   0  0  0  0  0  0  0  0  0  0  0  0
  -46.0291   64.2540   63.9412 H   0  0  0  0  0  0  0  0  0  0  0  0
  -47.6425   64.8190   66.3769 H   0  0  0  0  0  0  0  0  0  0  0  0
  -46.6850   63.3654   66.0668 H   0  0  0  0  0  0  0  0  0  0  0  0
  -48.9939   64.3131   64.4367 H   0  0  0  0  0  0  0  0  0  0  0  0
  -48.9706   62.9673   65.6264 H   0  0  0  0  0  0  0  0  0  0  0  0
  -47.4581   62.9927   63.0548 H   0  0  0  0  0  0  0  0  0  0  0  0
  -48.9554   62.1513   63.3226 H   0  0  0  0  0  0  0  0  0  0  0  0
  -46.4181   61.7884   64.8752 H   0  0  0  0  0  0  0  0  0  0  0  0
  -47.1501   60.6778   63.6370 H   0  0  0  0  0  0  0  0  0  0  0  0
  -48.8629   60.0888   65.1023 H   0  0  0  0  0  0  0  0  0  0  0  0
  -48.2543   61.1965   66.3245 H   0  0  0  0  0  0  0  0  0  0  0  0
  -46.1873   59.9267   66.4661 H   0  0  0  0  0  0  0  0  0  0  0  0
  -46.8261   58.8139   65.2256 H   0  0  0  0  0  0  0  0  0  0  0  0
  -46.9463   57.8361   67.4446 H   0  0  0  0  0  0  0  0  0  0  0  0
  -48.5431   58.0980   66.7138 H   0  0  0  0  0  0  0  0  0  0  0  0
  -47.2912   59.8087   68.8287 H   0  0  0  0  0  0  0  0  0  0  0  0
  -48.5847   58.6592   69.0711 H   0  0  0  0  0  0  0  0  0  0  0  0
  -48.8482   60.0752   68.0817 H   0  0  0  0  0  0  0  0  0  0  0  0
  -36.2294   63.0536   64.0919 H   0  0  0  0  0  0  0  0  0  0  0  0
  -37.8075   64.8385   65.9209 H   0  0  0  0  0  0  0  0  0  0  0  0
  -36.0169   65.6040   63.6787 H   0  0  0  0  0  0  0  0  0  0  0  0
  -34.6703   66.5692   65.5474 H   0  0  0  0  0  0  0  0  0  0  0  0
  -34.2432   64.1505   65.0592 H   0  0  0  0  0  0  0  0  0  0  0  0
  -33.2045   63.8834   67.2736 H   0  0  0  0  0  0  0  0  0  0  0  0
  -33.1949   65.5888   66.8881 H   0  0  0  0  0  0  0  0  0  0  0  0
  1  4  1  0  0  0  0
  1 31  1  0  0  0  0
  1 56  1  0  0  0  0
  2  3  1  0  0  0  0
  2  4  1  0  0  0  0
  2 57  1  0  0  0  0
  2 58  1  0  0  0  0
  3 49  1  0  0  0  0
  4  6  1  0  0  0  0
  4 59  1  1  0  0  0
  5  6  1  0  0  0  0
  5 60  1  0  0  0  0
  6  8  1  0  0  0  0
  6 61  1  1  0  0  0
  7 31  2  0  0  0  0
  8  9  2  0  0  0  0
  8 62  1  0  0  0  0
  9 11  1  0  0  0  0
  9 63  1  0  0  0  0
 10 50  1  0  0  0  0
 10 64  1  0  0  0  0
 11 13  1  0  0  0  0
 11 65  1  0  0  0  0
 11 66  1  0  0  0  0
 12 51  1  0  0  0  0
 12 55  1  0  0  0  0
 13 15  1  0  0  0  0
 13 67  1  0  0  0  0
 13 68  1  0  0  0  0
 14 55  1  0  0  0  0
 14 69  1  0  0  0  0
 15 17  1  0  0  0  0
 15 70  1  0  0  0  0
 15 71  1  0  0  0  0
 16 52  1  0  0  0  0
 16 72  1  0  0  0  0
 17 19  1  0  0  0  0
 17 73  1  0  0  0  0
 17 74  1  0  0  0  0
 18 49  1  0  0  0  0
 18 53  1  0  0  0  0
 19 21  1  0  0  0  0
 19 75  1  0  0  0  0
 19 76  1  0  0  0  0
 20 54  1  0  0  0  0
 20 77  1  0  0  0  0
 21 22  1  0  0  0  0
 21 78  1  0  0  0  0
 21 79  1  0  0  0  0
 22 23  1  0  0  0  0
 22 80  1  0  0  0  0
 22 81  1  0  0  0  0
 23 25  1  0  0  0  0
 23 82  1  0  0  0  0
 23 83  1  0  0  0  0
 24 55  1  0  0  0  0
 25 27  1  0  0  0  0
 25 84  1  0  0  0  0
 25 85  1  0  0  0  0
 26 55  1  0  0  0  0
 26 86  1  0  0  0  0
 27 28  1  0  0  0  0
 27 87  1  0  0  0  0
 27 88  1  0  0  0  0
 28 29  1  0  0  0  0
 28 89  1  0  0  0  0
 28 90  1  0  0  0  0
 29 30  1  0  0  0  0
 29 91  1  0  0  0  0
 29 92  1  0  0  0  0
 30 93  1  0  0  0  0
 30 94  1  0  0  0  0
 30 95  1  0  0  0  0
 31 32  1  0  0  0  0
 32 33  1  0  0  0  0
 32 96  1  0  0  0  0
 32 97  1  0  0  0  0
 33 34  1  0  0  0  0
 33 98  1  0  0  0  0
 33 99  1  0  0  0  0
 34 35  1  0  0  0  0
 34100  1  0  0  0  0
 34101  1  0  0  0  0
 35 36  1  0  0  0  0
 35102  1  0  0  0  0
 35103  1  0  0  0  0
 36 37  1  0  0  0  0
 36104  1  0  0  0  0
 36105  1  0  0  0  0
 37 38  1  0  0  0  0
 37106  1  0  0  0  0
 37107  1  0  0  0  0
 38 39  1  0  0  0  0
 38108  1  0  0  0  0
 38109  1  0  0  0  0
 39 40  1  0  0  0  0
 39110  1  0  0  0  0
 39111  1  0  0  0  0
 40 41  1  0  0  0  0
 40112  1  0  0  0  0
 40113  1  0  0  0  0
 41 42  1  0  0  0  0
 41114  1  0  0  0  0
 41115  1  0  0  0  0
 42 43  1  0  0  0  0
 42116  1  0  0  0  0
 42117  1  0  0  0  0
 43 44  1  0  0  0  0
 43118  1  0  0  0  0
 43119  1  0  0  0  0
 44 45  1  0  0  0  0
 44120  1  0  0  0  0
 44121  1  0  0  0  0
 45 46  1  0  0  0  0
 45122  1  0  0  0  0
 45123  1  0  0  0  0
 46 47  1  0  0  0  0
 46124  1  0  0  0  0
 46125  1  0  0  0  0
 47 48  1  0  0  0  0
 47126  1  0  0  0  0
 47127  1  0  0  0  0
 48128  1  0  0  0  0
 48129  1  0  0  0  0
 48130  1  0  0  0  0
 49 50  1  0  0  0  0
 49131  1  6  0  0  0
 50 51  1  0  0  0  0
 50132  1  1  0  0  0
 51 52  1  0  0  0  0
 51133  1  6  0  0  0
 52 53  1  0  0  0  0
 52134  1  6  0  0  0
 53 54  1  0  0  0  0
 53135  1  6  0  0  0
 54136  1  0  0  0  0
 54137  1  0  0  0  0
M  CHG  1  24  -1
M  END
$$$$