/media/chris/experiments/cd1a-new-docking/inputs/ligands/1onq_ligand.pdb
 OpenBabel06222310383D

137137  0  0  1  0  0  0  0  0999 V2000
  -40.4920   60.2280   63.6270 N   0  0  0  0  0  0  0  0  0  0  0  0
  -38.5950   61.7730   64.2860 C   0  0  0  0  0  0  0  0  0  0  0  0
  -37.5441   62.0867   65.2349 O   0  0  0  0  0  0  0  0  0  0  0  0
  -39.4590   60.5300   64.5980 C   0  0  1  0  0  0  0  0  0  0  0  0
  -39.2569   60.8461   66.8904 O   0  0  0  0  0  0  0  0  0  0  0  0
  -40.2280   60.5370   65.9080 C   0  0  2  0  0  0  0  0  0  0  0  0
  -41.6768   60.5954   61.7273 O   0  0  0  0  0  0  0  0  0  0  0  0
  -40.8583   59.1606   66.1332 C   0  0  0  0  0  0  0  0  0  0  0  0
  -41.0723   58.6448   67.3556 C   0  0  0  0  0  0  0  0  0  0  0  0
  -34.8829   62.7993   66.0015 O   0  0  0  0  0  0  0  0  0  0  0  0
  -41.7060   57.2621   67.4971 C   0  0  0  0  0  0  0  0  0  0  0  0
  -33.1821   60.9883   67.6133 O   0  0  0  0  0  0  0  0  0  0  0  0
  -41.2535   56.4960   68.7487 C   0  0  0  0  0  0  0  0  0  0  0  0
  -31.5554   62.4291   66.2008 O   0  0  0  0  0  0  0  0  0  0  0  0
  -41.5759   57.1696   70.0954 C   0  0  0  0  0  0  0  0  0  0  0  0
  -35.2780   59.4877   68.5068 O   0  0  0  0  0  0  0  0  0  0  0  0
  -41.0568   56.3138   71.2758 C   0  0  0  0  0  0  0  0  0  0  0  0
  -36.9441   59.8674   66.0098 O   0  0  0  0  0  0  0  0  0  0  0  0
  -41.3421   56.8893   72.6861 C   0  0  0  0  0  0  0  0  0  0  0  0
  -35.2824   56.7380   67.1203 O   0  0  0  0  0  0  0  0  0  0  0  0
  -40.7975   56.0227   73.8459 C   0  0  0  0  0  0  0  0  0  0  0  0
  -41.1044   56.5998   75.2448 C   0  0  0  0  0  0  0  0  0  0  0  0
  -40.5515   55.7528   76.3973 C   0  0  0  0  0  0  0  0  0  0  0  0
  -31.3199   62.3771   68.6155 O   0  5  0  0  0  0  0  0  0  0  0  0
  -41.0531   54.3122   76.4725 C   0  0  0  0  0  0  0  0  0  0  0  0
  -33.1237   63.6323   67.5933 O   0  0  0  0  0  0  0  0  0  0  0  0
  -40.4800   53.5111   77.6582 C   0  0  0  0  0  0  0  0  0  0  0  0
  -38.9492   53.3851   77.6844 C   0  0  0  0  0  0  0  0  0  0  0  0
  -38.4860   52.5593   78.8879 C   0  0  0  0  0  0  0  0  0  0  0  0
  -36.9870   52.3718   79.0415 C   0  0  0  0  0  0  0  0  0  0  0  0
  -40.7863   60.8910   62.5003 C   0  0  0  0  0  0  0  0  0  0  0  0
  -39.9258   62.0873   62.2211 C   0  0  0  0  0  0  0  0  0  0  0  0
  -40.8642   63.2930   62.1674 C   0  0  0  0  0  0  0  0  0  0  0  0
  -41.9084   63.0928   61.0717 C   0  0  0  0  0  0  0  0  0  0  0  0
  -42.9004   64.2155   60.8876 C   0  0  0  0  0  0  0  0  0  0  0  0
  -43.6418   64.3966   62.2080 C   0  0  0  0  0  0  0  0  0  0  0  0
  -44.3837   63.1281   62.6503 C   0  0  0  0  0  0  0  0  0  0  0  0
  -45.1589   63.2776   63.9721 C   0  0  0  0  0  0  0  0  0  0  0  0
  -46.2539   64.3650   63.9064 C   0  0  0  0  0  0  0  0  0  0  0  0
  -47.2887   64.0249   62.8300 C   0  0  0  0  0  0  0  0  0  0  0  0
  -48.4096   65.0444   62.6680 C   0  0  0  0  0  0  0  0  0  0  0  0
  -49.2049   65.2366   63.9508 C   0  0  0  0  0  0  0  0  0  0  0  0
  -50.3650   66.2322   63.8784 C   0  0  0  0  0  0  0  0  0  0  0  0
  -51.3540   65.7351   62.8328 C   0  0  0  0  0  0  0  0  0  0  0  0
  -52.0125   64.3789   63.0383 C   0  0  0  0  0  0  0  0  0  0  0  0
  -52.9601   64.0458   61.8750 C   0  0  0  0  0  0  0  0  0  0  0  0
  -54.0993   65.0610   61.6687 C   0  0  0  0  0  0  0  0  0  0  0  0
  -53.6029   66.4704   61.3547 C   0  0  0  0  0  0  0  0  0  0  0  0
  -36.4503   61.1334   65.5086 C   0  0  2  0  0  0  0  0  0  0  0  0
  -35.3818   61.5997   66.5077 C   0  0  1  0  0  0  0  0  0  0  0  0
  -34.2046   60.6120   66.6632 C   0  0  2  0  0  0  0  0  0  0  0  0
  -34.7978   59.3281   67.1741 C   0  0  2  0  0  0  0  0  0  0  0  0
  -35.9120   58.8730   66.2490 C   0  0  1  0  0  0  0  0  0  0  0  0
  -36.3724   57.5915   66.9404 C   0  0  0  0  0  0  0  0  0  0  0  0
  -32.2989   62.3947   67.4949 S   0  0  0  0  0  0  0  0  0  0  0  0
  -41.0464   59.4375   63.8192 H   0  0  0  0  0  0  0  0  0  0  0  0
  -38.1357   61.6183   63.3320 H   0  0  0  0  0  0  0  0  0  0  0  0
  -39.2690   62.6030   64.3261 H   0  0  0  0  0  0  0  0  0  0  0  0
  -38.6677   59.8099   64.6092 H   0  0  0  0  0  0  0  0  0  0  0  0
  -38.8837   61.7234   66.7113 H   0  0  0  0  0  0  0  0  0  0  0  0
  -41.0317   61.2430   65.9299 H   0  0  0  0  0  0  0  0  0  0  0  0
  -41.1313   58.6032   65.3087 H   0  0  0  0  0  0  0  0  0  0  0  0
  -40.8092   59.1816   68.1968 H   0  0  0  0  0  0  0  0  0  0  0  0
  -35.6096   63.4332   65.8970 H   0  0  0  0  0  0  0  0  0  0  0  0
  -41.4471   56.6829   66.6355 H   0  0  0  0  0  0  0  0  0  0  0  0
  -42.7615   57.4118   67.5890 H   0  0  0  0  0  0  0  0  0  0  0  0
  -40.1928   56.3680   68.6905 H   0  0  0  0  0  0  0  0  0  0  0  0
  -41.8017   55.5771   68.7430 H   0  0  0  0  0  0  0  0  0  0  0  0
  -31.0119   61.6299   66.1188 H   0  0  0  0  0  0  0  0  0  0  0  0
  -42.6359   57.2850   70.1851 H   0  0  0  0  0  0  0  0  0  0  0  0
  -41.0936   58.1243   70.1256 H   0  0  0  0  0  0  0  0  0  0  0  0
  -34.5511   59.7783   69.0797 H   0  0  0  0  0  0  0  0  0  0  0  0
  -39.9971   56.2110   71.1688 H   0  0  0  0  0  0  0  0  0  0  0  0
  -41.5849   55.3847   71.2227 H   0  0  0  0  0  0  0  0  0  0  0  0
  -42.4018   56.9798   72.8036 H   0  0  0  0  0  0  0  0  0  0  0  0
  -40.8372   57.8310   72.7422 H   0  0  0  0  0  0  0  0  0  0  0  0
  -35.5774   55.9250   67.5595 H   0  0  0  0  0  0  0  0  0  0  0  0
  -39.7360   55.9420   73.7385 H   0  0  0  0  0  0  0  0  0  0  0  0
  -41.2858   55.0726   73.7841 H   0  0  0  0  0  0  0  0  0  0  0  0
  -42.1663   56.6689   75.3559 H   0  0  0  0  0  0  0  0  0  0  0  0
  -40.6243   57.5544   75.3008 H   0  0  0  0  0  0  0  0  0  0  0  0
  -40.8126   56.2383   77.3144 H   0  0  0  0  0  0  0  0  0  0  0  0
  -39.4982   55.6819   76.2227 H   0  0  0  0  0  0  0  0  0  0  0  0
  -40.7808   53.8132   75.5660 H   0  0  0  0  0  0  0  0  0  0  0  0
  -42.1127   54.3598   76.6137 H   0  0  0  0  0  0  0  0  0  0  0  0
  -33.7652   63.6520   66.8659 H   0  0  0  0  0  0  0  0  0  0  0  0
  -40.8926   52.5245   77.6211 H   0  0  0  0  0  0  0  0  0  0  0  0
  -40.7481   54.0540   78.5403 H   0  0  0  0  0  0  0  0  0  0  0  0
  -38.5188   54.3629   77.7447 H   0  0  0  0  0  0  0  0  0  0  0  0
  -38.6329   52.8902   76.7900 H   0  0  0  0  0  0  0  0  0  0  0  0
  -38.9288   51.5886   78.8066 H   0  0  0  0  0  0  0  0  0  0  0  0
  -38.7925   53.1154   79.7491 H   0  0  0  0  0  0  0  0  0  0  0  0
  -36.6095   51.8182   78.2072 H   0  0  0  0  0  0  0  0  0  0  0  0
  -36.7853   51.8363   79.9456 H   0  0  0  0  0  0  0  0  0  0  0  0
  -36.5100   53.3288   79.0798 H   0  0  0  0  0  0  0  0  0  0  0  0
  -39.4212   61.9695   61.2849 H   0  0  0  0  0  0  0  0  0  0  0  0
  -39.1784   62.2116   62.9767 H   0  0  0  0  0  0  0  0  0  0  0  0
  -40.2960   64.1753   61.9586 H   0  0  0  0  0  0  0  0  0  0  0  0
  -41.3593   63.3953   63.1104 H   0  0  0  0  0  0  0  0  0  0  0  0
  -42.4587   62.2047   61.3028 H   0  0  0  0  0  0  0  0  0  0  0  0
  -41.3580   63.0421   60.1555 H   0  0  0  0  0  0  0  0  0  0  0  0
  -43.5933   63.9665   60.1112 H   0  0  0  0  0  0  0  0  0  0  0  0
  -42.3984   65.1192   60.6114 H   0  0  0  0  0  0  0  0  0  0  0  0
  -44.3535   65.1875   62.0952 H   0  0  0  0  0  0  0  0  0  0  0  0
  -42.9137   64.6230   62.9587 H   0  0  0  0  0  0  0  0  0  0  0  0
  -43.6656   62.3439   62.7695 H   0  0  0  0  0  0  0  0  0  0  0  0
  -45.1080   62.9159   61.8918 H   0  0  0  0  0  0  0  0  0  0  0  0
  -44.4671   63.5360   64.7464 H   0  0  0  0  0  0  0  0  0  0  0  0
  -45.6443   62.3442   64.1673 H   0  0  0  0  0  0  0  0  0  0  0  0
  -45.8010   65.3061   63.6737 H   0  0  0  0  0  0  0  0  0  0  0  0
  -46.7469   64.4152   64.8547 H   0  0  0  0  0  0  0  0  0  0  0  0
  -47.7304   63.0830   63.0803 H   0  0  0  0  0  0  0  0  0  0  0  0
  -46.7594   64.0128   61.9001 H   0  0  0  0  0  0  0  0  0  0  0  0
  -49.0730   64.7072   61.8991 H   0  0  0  0  0  0  0  0  0  0  0  0
  -47.9639   65.9837   62.4152 H   0  0  0  0  0  0  0  0  0  0  0  0
  -48.5288   65.5763   64.7073 H   0  0  0  0  0  0  0  0  0  0  0  0
  -49.6524   64.2870   64.1577 H   0  0  0  0  0  0  0  0  0  0  0  0
  -49.9971   67.1974   63.5991 H   0  0  0  0  0  0  0  0  0  0  0  0
  -50.8439   66.3116   64.8320 H   0  0  0  0  0  0  0  0  0  0  0  0
  -50.8320   65.6939   61.8996 H   0  0  0  0  0  0  0  0  0  0  0  0
  -52.1655   66.4301   62.8907 H   0  0  0  0  0  0  0  0  0  0  0  0
  -52.5709   64.3956   63.9509 H   0  0  0  0  0  0  0  0  0  0  0  0
  -51.2482   63.6313   63.0807 H   0  0  0  0  0  0  0  0  0  0  0  0
  -53.3967   63.0873   62.0636 H   0  0  0  0  0  0  0  0  0  0  0  0
  -52.3678   64.0679   60.9842 H   0  0  0  0  0  0  0  0  0  0  0  0
  -54.6864   65.0989   62.5624 H   0  0  0  0  0  0  0  0  0  0  0  0
  -54.6693   64.7306   60.8256 H   0  0  0  0  0  0  0  0  0  0  0  0
  -53.0260   66.8370   62.1780 H   0  0  0  0  0  0  0  0  0  0  0  0
  -54.4408   67.1155   61.1911 H   0  0  0  0  0  0  0  0  0  0  0  0
  -52.9941   66.4464   60.4752 H   0  0  0  0  0  0  0  0  0  0  0  0
  -35.9925   61.0440   64.5457 H   0  0  0  0  0  0  0  0  0  0  0  0
  -35.8309   61.6875   67.4750 H   0  0  0  0  0  0  0  0  0  0  0  0
  -33.7257   60.5630   65.7076 H   0  0  0  0  0  0  0  0  0  0  0  0
  -34.0355   58.5774   67.1903 H   0  0  0  0  0  0  0  0  0  0  0  0
  -35.5992   58.7098   65.2389 H   0  0  0  0  0  0  0  0  0  0  0  0
  -36.7961   57.8333   67.8927 H   0  0  0  0  0  0  0  0  0  0  0  0
  -37.1076   57.1054   66.3338 H   0  0  0  0  0  0  0  0  0  0  0  0
  1  4  1  0  0  0  0
  1 31  1  0  0  0  0
  1 56  1  0  0  0  0
  2  3  1  0  0  0  0
  2  4  1  0  0  0  0
  2 57  1  0  0  0  0
  2 58  1  0  0  0  0
  3 49  1  0  0  0  0
  4  6  1  0  0  0  0
  4 59  1  1  0  0  0
  5  6  1  0  0  0  0
  5 60  1  0  0  0  0
  6  8  1  0  0  0  0
  6 61  1  6  0  0  0
  7 31  2  0  0  0  0
  8  9  2  0  0  0  0
  8 62  1  0  0  0  0
  9 11  1  0  0  0  0
  9 63  1  0  0  0  0
 10 50  1  0  0  0  0
 10 64  1  0  0  0  0
 11 13  1  0  0  0  0
 11 65  1  0  0  0  0
 11 66  1  0  0  0  0
 12 51  1  0  0  0  0
 12 55  1  0  0  0  0
 13 15  1  0  0  0  0
 13 67  1  0  0  0  0
 13 68  1  0  0  0  0
 14 55  1  0  0  0  0
 14 69  1  0  0  0  0
 15 17  1  0  0  0  0
 15 70  1  0  0  0  0
 15 71  1  0  0  0  0
 16 52  1  0  0  0  0
 16 72  1  0  0  0  0
 17 19  1  0  0  0  0
 17 73  1  0  0  0  0
 17 74  1  0  0  0  0
 18 49  1  0  0  0  0
 18 53  1  0  0  0  0
 19 21  1  0  0  0  0
 19 75  1  0  0  0  0
 19 76  1  0  0  0  0
 20 54  1  0  0  0  0
 20 77  1  0  0  0  0
 21 22  1  0  0  0  0
 21 78  1  0  0  0  0
 21 79  1  0  0  0  0
 22 23  1  0  0  0  0
 22 80  1  0  0  0  0
 22 81  1  0  0  0  0
 23 25  1  0  0  0  0
 23 82  1  0  0  0  0
 23 83  1  0  0  0  0
 24 55  1  0  0  0  0
 25 27  1  0  0  0  0
 25 84  1  0  0  0  0
 25 85  1  0  0  0  0
 26 55  1  0  0  0  0
 26 86  1  0  0  0  0
 27 28  1  0  0  0  0
 27 87  1  0  0  0  0
 27 88  1  0  0  0  0
 28 29  1  0  0  0  0
 28 89  1  0  0  0  0
 28 90  1  0  0  0  0
 29 30  1  0  0  0  0
 29 91  1  0  0  0  0
 29 92  1  0  0  0  0
 30 93  1  0  0  0  0
 30 94  1  0  0  0  0
 30 95  1  0  0  0  0
 31 32  1  0  0  0  0
 32 33  1  0  0  0  0
 32 96  1  0  0  0  0
 32 97  1  0  0  0  0
 33 34  1  0  0  0  0
 33 98  1  0  0  0  0
 33 99  1  0  0  0  0
 34 35  1  0  0  0  0
 34100  1  0  0  0  0
 34101  1  0  0  0  0
 35 36  1  0  0  0  0
 35102  1  0  0  0  0
 35103  1  0  0  0  0
 36 37  1  0  0  0  0
 36104  1  0  0  0  0
 36105  1  0  0  0  0
 37 38  1  0  0  0  0
 37106  1  0  0  0  0
 37107  1  0  0  0  0
 38 39  1  0  0  0  0
 38108  1  0  0  0  0
 38109  1  0  0  0  0
 39 40  1  0  0  0  0
 39110  1  0  0  0  0
 39111  1  0  0  0  0
 40 41  1  0  0  0  0
 40112  1  0  0  0  0
 40113  1  0  0  0  0
 41 42  1  0  0  0  0
 41114  1  0  0  0  0
 41115  1  0  0  0  0
 42 43  1  0  0  0  0
 42116  1  0  0  0  0
 42117  1  0  0  0  0
 43 44  1  0  0  0  0
 43118  1  0  0  0  0
 43119  1  0  0  0  0
 44 45  1  0  0  0  0
 44120  1  0  0  0  0
 44121  1  0  0  0  0
 45 46  1  0  0  0  0
 45122  1  0  0  0  0
 45123  1  0  0  0  0
 46 47  1  0  0  0  0
 46124  1  0  0  0  0
 46125  1  0  0  0  0
 47 48  1  0  0  0  0
 47126  1  0  0  0  0
 47127  1  0  0  0  0
 48128  1  0  0  0  0
 48129  1  0  0  0  0
 48130  1  0  0  0  0
 49 50  1  0  0  0  0
 49131  1  6  0  0  0
 50 51  1  0  0  0  0
 50132  1  1  0  0  0
 51 52  1  0  0  0  0
 51133  1  6  0  0  0
 52 53  1  0  0  0  0
 52134  1  1  0  0  0
 53 54  1  0  0  0  0
 53135  1  6  0  0  0
 54136  1  0  0  0  0
 54137  1  0  0  0  0
M  CHG  1  24  -1
M  END
$$$$