/media/chris/experiments/cd1a-new-docking/inputs/ligands/1onq_ligand.pdb
 OpenBabel06222310383D

137137  0  0  1  0  0  0  0  0999 V2000
  -40.4920   60.2280   63.6270 N   0  0  0  0  0  0  0  0  0  0  0  0
  -38.5950   61.7730   64.2860 C   0  0  0  0  0  0  0  0  0  0  0  0
  -37.5441   62.0867   65.2349 O   0  0  0  0  0  0  0  0  0  0  0  0
  -39.4590   60.5300   64.5980 C   0  0  1  0  0  0  0  0  0  0  0  0
  -40.7577   59.2290   66.0180 O   0  0  0  0  0  0  0  0  0  0  0  0
  -40.2280   60.5370   65.9080 C   0  0  2  0  0  0  0  0  0  0  0  0
  -41.8540   58.8360   62.4630 O   0  0  0  0  0  0  0  0  0  0  0  0
  -41.3266   61.6007   65.8452 C   0  0  0  0  0  0  0  0  0  0  0  0
  -42.3197   61.5746   64.9400 C   0  0  0  0  0  0  0  0  0  0  0  0
  -36.3260   63.5957   67.3365 O   0  0  0  0  0  0  0  0  0  0  0  0
  -43.3792   62.6750   64.9418 C   0  0  0  0  0  0  0  0  0  0  0  0
  -33.7882   65.0685   66.9357 O   0  0  0  0  0  0  0  0  0  0  0  0
  -43.9635   62.9777   63.5543 C   0  0  0  0  0  0  0  0  0  0  0  0
  -35.0671   66.3399   68.7971 O   0  0  0  0  0  0  0  0  0  0  0  0
  -42.9490   63.4311   62.4883 C   0  0  0  0  0  0  0  0  0  0  0  0
  -33.0907   63.6620   64.7045 O   0  0  0  0  0  0  0  0  0  0  0  0
  -43.6580   63.7216   61.1436 C   0  0  0  0  0  0  0  0  0  0  0  0
  -35.9395   63.1998   63.7956 O   0  0  0  0  0  0  0  0  0  0  0  0
  -44.4276   62.5250   60.5293 C   0  0  0  0  0  0  0  0  0  0  0  0
  -33.3291   63.1566   62.4639 O   0  0  0  0  0  0  0  0  0  0  0  0
  -43.5460   61.2883   60.2359 C   0  0  0  0  0  0  0  0  0  0  0  0
  -42.3884   61.5739   59.2548 C   0  0  0  0  0  0  0  0  0  0  0  0
  -41.5219   60.3466   58.9477 C   0  0  0  0  0  0  0  0  0  0  0  0
  -32.8125   65.5484   69.2201 O   0  5  0  0  0  0  0  0  0  0  0  0
  -40.3501   60.5735   57.9949 C   0  0  0  0  0  0  0  0  0  0  0  0
  -34.6660   63.9871   69.1841 O   0  0  0  0  0  0  0  0  0  0  0  0
  -39.5230   59.3051   57.7069 C   0  0  0  0  0  0  0  0  0  0  0  0
  -38.3261   59.5038   56.7646 C   0  0  0  0  0  0  0  0  0  0  0  0
  -38.7812   60.0339   55.4019 C   0  0  0  0  0  0  0  0  0  0  0  0
  -37.6928   60.2593   54.3674 C   0  0  0  0  0  0  0  0  0  0  0  0
  -40.9921   59.0290   63.2983 C   0  0  0  0  0  0  0  0  0  0  0  0
  -40.4035   57.8670   64.0420 C   0  0  0  0  0  0  0  0  0  0  0  0
  -39.7820   56.9489   62.9893 C   0  0  0  0  0  0  0  0  0  0  0  0
  -39.1706   55.7225   63.6625 C   0  0  0  0  0  0  0  0  0  0  0  0
  -38.0891   55.9942   64.6799 C   0  0  0  0  0  0  0  0  0  0  0  0
  -37.6081   54.6483   65.2118 C   0  0  0  0  0  0  0  0  0  0  0  0
  -38.7315   53.8338   65.8672 C   0  0  0  0  0  0  0  0  0  0  0  0
  -38.2801   52.4745   66.4320 C   0  0  0  0  0  0  0  0  0  0  0  0
  -39.4378   51.6743   67.0683 C   0  0  0  0  0  0  0  0  0  0  0  0
  -40.5230   51.3763   66.0297 C   0  0  0  0  0  0  0  0  0  0  0  0
  -41.7251   50.6022   66.5569 C   0  0  0  0  0  0  0  0  0  0  0  0
  -42.7548   50.3257   65.4714 C   0  0  0  0  0  0  0  0  0  0  0  0
  -44.0077   49.5658   65.9129 C   0  0  0  0  0  0  0  0  0  0  0  0
  -43.5732   48.2216   66.4813 C   0  0  0  0  0  0  0  0  0  0  0  0
  -42.7973   47.2674   65.5853 C   0  0  0  0  0  0  0  0  0  0  0  0
  -43.6109   46.9049   64.3329 C   0  0  0  0  0  0  0  0  0  0  0  0
  -44.9649   46.2318   64.6237 C   0  0  0  0  0  0  0  0  0  0  0  0
  -45.9105   47.1065   65.4437 C   0  0  0  0  0  0  0  0  0  0  0  0
  -36.6675   63.2597   65.0462 C   0  0  2  0  0  0  0  0  0  0  0  0
  -35.6170   63.5011   66.1397 C   0  0  1  0  0  0  0  0  0  0  0  0
  -34.8113   64.8049   65.9489 C   0  0  2  0  0  0  0  0  0  0  0  0
  -34.0971   64.6690   64.6325 C   0  0  2  0  0  0  0  0  0  0  0  0
  -35.0980   64.3555   63.5351 C   0  0  1  0  0  0  0  0  0  0  0  0
  -34.1843   64.2500   62.3160 C   0  0  0  0  0  0  0  0  0  0  0  0
  -34.1068   65.2212   68.5628 S   0  0  0  0  0  0  0  0  0  0  0  0
  -40.8737   60.9998   63.1496 H   0  0  0  0  0  0  0  0  0  0  0  0
  -38.1357   61.6183   63.3320 H   0  0  0  0  0  0  0  0  0  0  0  0
  -39.2690   62.6030   64.3261 H   0  0  0  0  0  0  0  0  0  0  0  0
  -38.6677   59.8099   64.6092 H   0  0  0  0  0  0  0  0  0  0  0  0
  -40.0308   58.5878   66.0547 H   0  0  0  0  0  0  0  0  0  0  0  0
  -39.6247   60.7776   66.7583 H   0  0  0  0  0  0  0  0  0  0  0  0
  -41.3038   62.3732   66.5291 H   0  0  0  0  0  0  0  0  0  0  0  0
  -42.3663   60.8129   64.2453 H   0  0  0  0  0  0  0  0  0  0  0  0
  -36.8391   62.7839   67.4733 H   0  0  0  0  0  0  0  0  0  0  0  0
  -42.9345   63.5705   65.3229 H   0  0  0  0  0  0  0  0  0  0  0  0
  -44.1877   62.3270   65.5504 H   0  0  0  0  0  0  0  0  0  0  0  0
  -44.6920   63.7534   63.6662 H   0  0  0  0  0  0  0  0  0  0  0  0
  -44.3669   62.0525   63.1989 H   0  0  0  0  0  0  0  0  0  0  0  0
  -34.7195   67.1532   68.3990 H   0  0  0  0  0  0  0  0  0  0  0  0
  -42.2238   62.6579   62.3428 H   0  0  0  0  0  0  0  0  0  0  0  0
  -42.4738   64.3282   62.8265 H   0  0  0  0  0  0  0  0  0  0  0  0
  -32.4632   63.8819   65.4108 H   0  0  0  0  0  0  0  0  0  0  0  0
  -42.9157   64.0341   60.4392 H   0  0  0  0  0  0  0  0  0  0  0  0
  -44.3930   64.4707   61.3522 H   0  0  0  0  0  0  0  0  0  0  0  0
  -44.8706   62.8471   59.6101 H   0  0  0  0  0  0  0  0  0  0  0  0
  -45.1531   62.2207   61.2545 H   0  0  0  0  0  0  0  0  0  0  0  0
  -32.7500   63.0918   61.6884 H   0  0  0  0  0  0  0  0  0  0  0  0
  -44.1650   60.5235   59.8155 H   0  0  0  0  0  0  0  0  0  0  0  0
  -43.1047   60.9899   61.1639 H   0  0  0  0  0  0  0  0  0  0  0  0
  -41.7632   62.3302   59.6813 H   0  0  0  0  0  0  0  0  0  0  0  0
  -42.8312   61.8824   58.3309 H   0  0  0  0  0  0  0  0  0  0  0  0
  -42.1546   59.5994   58.5159 H   0  0  0  0  0  0  0  0  0  0  0  0
  -41.0828   60.0636   59.8815 H   0  0  0  0  0  0  0  0  0  0  0  0
  -39.7021   61.3071   58.4270 H   0  0  0  0  0  0  0  0  0  0  0  0
  -40.7664   60.8907   57.0616 H   0  0  0  0  0  0  0  0  0  0  0  0
  -35.5105   63.7664   68.7611 H   0  0  0  0  0  0  0  0  0  0  0  0
  -40.1736   58.5786   57.2667 H   0  0  0  0  0  0  0  0  0  0  0  0
  -39.1130   58.9986   58.6466 H   0  0  0  0  0  0  0  0  0  0  0  0
  -37.8298   58.5659   56.6271 H   0  0  0  0  0  0  0  0  0  0  0  0
  -37.6622   60.2190   57.2037 H   0  0  0  0  0  0  0  0  0  0  0  0
  -39.2743   60.9694   55.5647 H   0  0  0  0  0  0  0  0  0  0  0  0
  -39.4071   59.2681   54.9937 H   0  0  0  0  0  0  0  0  0  0  0  0
  -37.0243   61.0199   54.7130 H   0  0  0  0  0  0  0  0  0  0  0  0
  -38.1369   60.5674   53.4439 H   0  0  0  0  0  0  0  0  0  0  0  0
  -37.1504   59.3494   54.2163 H   0  0  0  0  0  0  0  0  0  0  0  0
  -41.1680   57.3474   64.5809 H   0  0  0  0  0  0  0  0  0  0  0  0
  -39.6724   58.1921   64.7524 H   0  0  0  0  0  0  0  0  0  0  0  0
  -39.0185   57.4809   62.4613 H   0  0  0  0  0  0  0  0  0  0  0  0
  -40.5422   56.6324   62.3061 H   0  0  0  0  0  0  0  0  0  0  0  0
  -38.7512   55.1041   62.8967 H   0  0  0  0  0  0  0  0  0  0  0  0
  -39.9698   55.2650   64.2074 H   0  0  0  0  0  0  0  0  0  0  0  0
  -38.4821   56.5840   65.4815 H   0  0  0  0  0  0  0  0  0  0  0  0
  -37.2797   56.5330   64.2333 H   0  0  0  0  0  0  0  0  0  0  0  0
  -36.8422   54.8215   65.9387 H   0  0  0  0  0  0  0  0  0  0  0  0
  -37.2435   54.0837   64.3792 H   0  0  0  0  0  0  0  0  0  0  0  0
  -39.4896   53.6569   65.1330 H   0  0  0  0  0  0  0  0  0  0  0  0
  -39.0839   54.4095   66.6974 H   0  0  0  0  0  0  0  0  0  0  0  0
  -37.5328   52.6460   67.1784 H   0  0  0  0  0  0  0  0  0  0  0  0
  -37.9011   51.8969   65.6149 H   0  0  0  0  0  0  0  0  0  0  0  0
  -39.8630   52.2459   67.8667 H   0  0  0  0  0  0  0  0  0  0  0  0
  -39.0528   50.7478   67.4399 H   0  0  0  0  0  0  0  0  0  0  0  0
  -40.0797   50.8043   65.2415 H   0  0  0  0  0  0  0  0  0  0  0  0
  -40.8970   52.3257   65.7077 H   0  0  0  0  0  0  0  0  0  0  0  0
  -42.1888   51.1738   67.3335 H   0  0  0  0  0  0  0  0  0  0  0  0
  -41.3732   49.6600   66.9221 H   0  0  0  0  0  0  0  0  0  0  0  0
  -42.2768   49.7517   64.7053 H   0  0  0  0  0  0  0  0  0  0  0  0
  -43.0988   51.2862   65.1489 H   0  0  0  0  0  0  0  0  0  0  0  0
  -44.6531   49.4125   65.0733 H   0  0  0  0  0  0  0  0  0  0  0  0
  -44.5381   50.1264   66.6541 H   0  0  0  0  0  0  0  0  0  0  0  0
  -44.4596   47.7100   66.7936 H   0  0  0  0  0  0  0  0  0  0  0  0
  -42.8778   48.4777   67.2531 H   0  0  0  0  0  0  0  0  0  0  0  0
  -42.5789   46.3737   66.1317 H   0  0  0  0  0  0  0  0  0  0  0  0
  -41.8925   47.7484   65.2772 H   0  0  0  0  0  0  0  0  0  0  0  0
  -43.0263   46.2359   63.7367 H   0  0  0  0  0  0  0  0  0  0  0  0
  -43.8299   47.8264   63.8350 H   0  0  0  0  0  0  0  0  0  0  0  0
  -44.7848   45.3264   65.1648 H   0  0  0  0  0  0  0  0  0  0  0  0
  -45.4379   46.0509   63.6811 H   0  0  0  0  0  0  0  0  0  0  0  0
  -45.4708   47.3101   66.3977 H   0  0  0  0  0  0  0  0  0  0  0  0
  -46.8402   46.5950   65.5813 H   0  0  0  0  0  0  0  0  0  0  0  0
  -46.0831   48.0272   64.9266 H   0  0  0  0  0  0  0  0  0  0  0  0
  -37.3714   64.0651   65.0741 H   0  0  0  0  0  0  0  0  0  0  0  0
  -34.9062   62.7017   66.1156 H   0  0  0  0  0  0  0  0  0  0  0  0
  -35.5159   65.6067   66.0228 H   0  0  0  0  0  0  0  0  0  0  0  0
  -33.6145   65.5961   64.4038 H   0  0  0  0  0  0  0  0  0  0  0  0
  -35.8616   65.0958   63.4182 H   0  0  0  0  0  0  0  0  0  0  0  0
  -34.7788   64.1205   61.4358 H   0  0  0  0  0  0  0  0  0  0  0  0
  -33.6044   65.1450   62.2285 H   0  0  0  0  0  0  0  0  0  0  0  0
  1  4  1  0  0  0  0
  1 31  1  0  0  0  0
  1 56  1  0  0  0  0
  2  3  1  0  0  0  0
  2  4  1  0  0  0  0
  2 57  1  0  0  0  0
  2 58  1  0  0  0  0
  3 49  1  0  0  0  0
  4  6  1  0  0  0  0
  4 59  1  1  0  0  0
  5  6  1  0  0  0  0
  5 60  1  0  0  0  0
  6  8  1  0  0  0  0
  6 61  1  1  0  0  0
  7 31  2  0  0  0  0
  8  9  2  0  0  0  0
  8 62  1  0  0  0  0
  9 11  1  0  0  0  0
  9 63  1  0  0  0  0
 10 50  1  0  0  0  0
 10 64  1  0  0  0  0
 11 13  1  0  0  0  0
 11 65  1  0  0  0  0
 11 66  1  0  0  0  0
 12 51  1  0  0  0  0
 12 55  1  0  0  0  0
 13 15  1  0  0  0  0
 13 67  1  0  0  0  0
 13 68  1  0  0  0  0
 14 55  1  0  0  0  0
 14 69  1  0  0  0  0
 15 17  1  0  0  0  0
 15 70  1  0  0  0  0
 15 71  1  0  0  0  0
 16 52  1  0  0  0  0
 16 72  1  0  0  0  0
 17 19  1  0  0  0  0
 17 73  1  0  0  0  0
 17 74  1  0  0  0  0
 18 49  1  0  0  0  0
 18 53  1  0  0  0  0
 19 21  1  0  0  0  0
 19 75  1  0  0  0  0
 19 76  1  0  0  0  0
 20 54  1  0  0  0  0
 20 77  1  0  0  0  0
 21 22  1  0  0  0  0
 21 78  1  0  0  0  0
 21 79  1  0  0  0  0
 22 23  1  0  0  0  0
 22 80  1  0  0  0  0
 22 81  1  0  0  0  0
 23 25  1  0  0  0  0
 23 82  1  0  0  0  0
 23 83  1  0  0  0  0
 24 55  1  0  0  0  0
 25 27  1  0  0  0  0
 25 84  1  0  0  0  0
 25 85  1  0  0  0  0
 26 55  1  0  0  0  0
 26 86  1  0  0  0  0
 27 28  1  0  0  0  0
 27 87  1  0  0  0  0
 27 88  1  0  0  0  0
 28 29  1  0  0  0  0
 28 89  1  0  0  0  0
 28 90  1  0  0  0  0
 29 30  1  0  0  0  0
 29 91  1  0  0  0  0
 29 92  1  0  0  0  0
 30 93  1  0  0  0  0
 30 94  1  0  0  0  0
 30 95  1  0  0  0  0
 31 32  1  0  0  0  0
 32 33  1  0  0  0  0
 32 96  1  0  0  0  0
 32 97  1  0  0  0  0
 33 34  1  0  0  0  0
 33 98  1  0  0  0  0
 33 99  1  0  0  0  0
 34 35  1  0  0  0  0
 34100  1  0  0  0  0
 34101  1  0  0  0  0
 35 36  1  0  0  0  0
 35102  1  0  0  0  0
 35103  1  0  0  0  0
 36 37  1  0  0  0  0
 36104  1  0  0  0  0
 36105  1  0  0  0  0
 37 38  1  0  0  0  0
 37106  1  0  0  0  0
 37107  1  0  0  0  0
 38 39  1  0  0  0  0
 38108  1  0  0  0  0
 38109  1  0  0  0  0
 39 40  1  0  0  0  0
 39110  1  0  0  0  0
 39111  1  0  0  0  0
 40 41  1  0  0  0  0
 40112  1  0  0  0  0
 40113  1  0  0  0  0
 41 42  1  0  0  0  0
 41114  1  0  0  0  0
 41115  1  0  0  0  0
 42 43  1  0  0  0  0
 42116  1  0  0  0  0
 42117  1  0  0  0  0
 43 44  1  0  0  0  0
 43118  1  0  0  0  0
 43119  1  0  0  0  0
 44 45  1  0  0  0  0
 44120  1  0  0  0  0
 44121  1  0  0  0  0
 45 46  1  0  0  0  0
 45122  1  0  0  0  0
 45123  1  0  0  0  0
 46 47  1  0  0  0  0
 46124  1  0  0  0  0
 46125  1  0  0  0  0
 47 48  1  0  0  0  0
 47126  1  0  0  0  0
 47127  1  0  0  0  0
 48128  1  0  0  0  0
 48129  1  0  0  0  0
 48130  1  0  0  0  0
 49 50  1  0  0  0  0
 49131  1  6  0  0  0
 50 51  1  0  0  0  0
 50132  1  1  0  0  0
 51 52  1  0  0  0  0
 51133  1  6  0  0  0
 52 53  1  0  0  0  0
 52134  1  6  0  0  0
 53 54  1  0  0  0  0
 53135  1  6  0  0  0
 54136  1  0  0  0  0
 54137  1  0  0  0  0
M  CHG  1  24  -1
M  END
$$$$