/media/chris/experiments/cd1a-new-docking/inputs/ligands/1onq_ligand.pdb
 OpenBabel06222310383D

137137  0  0  1  0  0  0  0  0999 V2000
  -40.4920   60.2280   63.6270 N   0  0  0  0  0  0  0  0  0  0  0  0
  -38.5950   61.7730   64.2860 C   0  0  0  0  0  0  0  0  0  0  0  0
  -37.5441   62.0867   65.2349 O   0  0  0  0  0  0  0  0  0  0  0  0
  -39.4590   60.5300   64.5980 C   0  0  1  0  0  0  0  0  0  0  0  0
  -40.7577   59.2290   66.0180 O   0  0  0  0  0  0  0  0  0  0  0  0
  -40.2280   60.5370   65.9080 C   0  0  2  0  0  0  0  0  0  0  0  0
  -41.3058   59.2379   61.7548 O   0  0  0  0  0  0  0  0  0  0  0  0
  -41.3266   61.6007   65.8452 C   0  0  0  0  0  0  0  0  0  0  0  0
  -41.3921   62.6366   66.6990 C   0  0  0  0  0  0  0  0  0  0  0  0
  -35.0677   62.0871   63.8049 O   0  0  0  0  0  0  0  0  0  0  0  0
  -42.5217   63.6569   66.5713 C   0  0  0  0  0  0  0  0  0  0  0  0
  -34.0199   64.5267   62.4933 O   0  0  0  0  0  0  0  0  0  0  0  0
  -42.1870   64.8436   65.6560 C   0  0  0  0  0  0  0  0  0  0  0  0
  -33.7161   62.0480   61.7999 O   0  0  0  0  0  0  0  0  0  0  0  0
  -40.9647   65.6825   66.0724 C   0  0  0  0  0  0  0  0  0  0  0  0
  -36.4318   65.8017   62.4860 O   0  0  0  0  0  0  0  0  0  0  0  0
  -40.7408   66.8542   65.0863 C   0  0  0  0  0  0  0  0  0  0  0  0
  -37.4137   64.5009   65.0354 O   0  0  0  0  0  0  0  0  0  0  0  0
  -40.5021   66.4415   63.6117 C   0  0  0  0  0  0  0  0  0  0  0  0
  -36.4467   68.0573   64.5825 O   0  0  0  0  0  0  0  0  0  0  0  0
  -41.6761   65.6617   62.9742 C   0  0  0  0  0  0  0  0  0  0  0  0
  -41.4167   65.2425   61.5109 C   0  0  0  0  0  0  0  0  0  0  0  0
  -40.2054   64.3183   61.3385 C   0  0  0  0  0  0  0  0  0  0  0  0
  -32.0205   63.1272   63.1599 O   0  5  0  0  0  0  0  0  0  0  0  0
  -40.2716   62.9807   62.0727 C   0  0  0  0  0  0  0  0  0  0  0  0
  -32.1955   63.6382   60.7971 O   0  0  0  0  0  0  0  0  0  0  0  0
  -41.4506   62.0870   61.6401 C   0  0  0  0  0  0  0  0  0  0  0  0
  -42.8448   62.7012   61.8375 C   0  0  0  0  0  0  0  0  0  0  0  0
  -43.9418   61.7289   61.3944 C   0  0  0  0  0  0  0  0  0  0  0  0
  -43.8988   61.2774   59.9453 C   0  0  0  0  0  0  0  0  0  0  0  0
  -40.4039   59.4449   62.5432 C   0  0  0  0  0  0  0  0  0  0  0  0
  -39.0653   58.8037   62.3269 C   0  0  0  0  0  0  0  0  0  0  0  0
  -39.2993   57.2932   62.3513 C   0  0  0  0  0  0  0  0  0  0  0  0
  -37.9762   56.5572   62.1545 C   0  0  0  0  0  0  0  0  0  0  0  0
  -36.9144   56.8111   63.1969 C   0  0  0  0  0  0  0  0  0  0  0  0
  -37.4710   56.3563   64.5420 C   0  0  0  0  0  0  0  0  0  0  0  0
  -37.8197   54.8621   64.5648 C   0  0  0  0  0  0  0  0  0  0  0  0
  -38.4012   54.3689   65.9024 C   0  0  0  0  0  0  0  0  0  0  0  0
  -37.4416   54.5904   67.0923 C   0  0  0  0  0  0  0  0  0  0  0  0
  -38.0620   54.0671   68.3909 C   0  0  0  0  0  0  0  0  0  0  0  0
  -37.2030   54.2513   69.6360 C   0  0  0  0  0  0  0  0  0  0  0  0
  -36.9055   55.7161   69.9206 C   0  0  0  0  0  0  0  0  0  0  0  0
  -36.0326   55.9979   71.1457 C   0  0  0  0  0  0  0  0  0  0  0  0
  -35.8637   57.5059   71.2728 C   0  0  0  0  0  0  0  0  0  0  0  0
  -35.2277   58.2682   70.1197 C   0  0  0  0  0  0  0  0  0  0  0  0
  -35.1281   59.7679   70.4406 C   0  0  0  0  0  0  0  0  0  0  0  0
  -34.2720   60.1010   71.6764 C   0  0  0  0  0  0  0  0  0  0  0  0
  -32.8193   59.6496   71.5443 C   0  0  0  0  0  0  0  0  0  0  0  0
  -36.6675   63.2597   65.0462 C   0  0  2  0  0  0  0  0  0  0  0  0
  -35.8119   63.2657   63.7712 C   0  0  1  0  0  0  0  0  0  0  0  0
  -34.8316   64.4561   63.6875 C   0  0  2  0  0  0  0  0  0  0  0  0
  -35.6781   65.6990   63.6916 C   0  0  2  0  0  0  0  0  0  0  0  0
  -36.5935   65.6931   64.9025 C   0  0  1  0  0  0  0  0  0  0  0  0
  -37.3535   67.0038   64.7114 C   0  0  0  0  0  0  0  0  0  0  0  0
  -32.9699   63.3204   62.0304 S   0  0  0  0  0  0  0  0  0  0  0  0
  -41.3672   60.6509   63.7832 H   0  0  0  0  0  0  0  0  0  0  0  0
  -38.1357   61.6183   63.3320 H   0  0  0  0  0  0  0  0  0  0  0  0
  -39.2690   62.6030   64.3261 H   0  0  0  0  0  0  0  0  0  0  0  0
  -38.6677   59.8099   64.6092 H   0  0  0  0  0  0  0  0  0  0  0  0
  -40.0308   58.5878   66.0547 H   0  0  0  0  0  0  0  0  0  0  0  0
  -39.6247   60.7776   66.7583 H   0  0  0  0  0  0  0  0  0  0  0  0
  -42.0502   61.5188   65.1139 H   0  0  0  0  0  0  0  0  0  0  0  0
  -40.6808   62.7424   67.4391 H   0  0  0  0  0  0  0  0  0  0  0  0
  -35.6681   61.3270   63.8576 H   0  0  0  0  0  0  0  0  0  0  0  0
  -42.7452   64.0361   67.5466 H   0  0  0  0  0  0  0  0  0  0  0  0
  -43.3521   63.1475   66.1287 H   0  0  0  0  0  0  0  0  0  0  0  0
  -43.0382   65.4915   65.6328 H   0  0  0  0  0  0  0  0  0  0  0  0
  -41.9397   64.4189   64.7055 H   0  0  0  0  0  0  0  0  0  0  0  0
  -34.2271   61.8246   62.5935 H   0  0  0  0  0  0  0  0  0  0  0  0
  -40.0959   65.0579   66.0782 H   0  0  0  0  0  0  0  0  0  0  0  0
  -41.1407   66.0844   67.0484 H   0  0  0  0  0  0  0  0  0  0  0  0
  -35.8283   65.8037   61.7266 H   0  0  0  0  0  0  0  0  0  0  0  0
  -39.8864   67.4065   65.4175 H   0  0  0  0  0  0  0  0  0  0  0  0
  -41.6471   67.4229   65.0916 H   0  0  0  0  0  0  0  0  0  0  0  0
  -39.6289   65.8244   63.5730 H   0  0  0  0  0  0  0  0  0  0  0  0
  -40.3944   67.3472   63.0522 H   0  0  0  0  0  0  0  0  0  0  0  0
  -36.9318   68.8885   64.4613 H   0  0  0  0  0  0  0  0  0  0  0  0
  -42.5476   66.2820   62.9991 H   0  0  0  0  0  0  0  0  0  0  0  0
  -41.8005   64.7627   63.5410 H   0  0  0  0  0  0  0  0  0  0  0  0
  -41.2522   66.1264   60.9307 H   0  0  0  0  0  0  0  0  0  0  0  0
  -42.2764   64.6943   61.1863 H   0  0  0  0  0  0  0  0  0  0  0  0
  -39.3415   64.8422   61.6907 H   0  0  0  0  0  0  0  0  0  0  0  0
  -40.1762   64.0737   60.2973 H   0  0  0  0  0  0  0  0  0  0  0  0
  -40.3642   63.1762   63.1207 H   0  0  0  0  0  0  0  0  0  0  0  0
  -39.3748   62.4496   61.8309 H   0  0  0  0  0  0  0  0  0  0  0  0
  -32.8072   63.7658   60.0552 H   0  0  0  0  0  0  0  0  0  0  0  0
  -41.4048   61.1811   62.2077 H   0  0  0  0  0  0  0  0  0  0  0  0
  -41.3386   61.9377   60.5865 H   0  0  0  0  0  0  0  0  0  0  0  0
  -42.9171   63.5978   61.2579 H   0  0  0  0  0  0  0  0  0  0  0  0
  -42.9787   62.9146   62.8774 H   0  0  0  0  0  0  0  0  0  0  0  0
  -44.8854   62.2059   61.5589 H   0  0  0  0  0  0  0  0  0  0  0  0
  -43.7865   60.8424   61.9730 H   0  0  0  0  0  0  0  0  0  0  0  0
  -44.0484   62.1209   59.3043 H   0  0  0  0  0  0  0  0  0  0  0  0
  -44.6711   60.5571   59.7731 H   0  0  0  0  0  0  0  0  0  0  0  0
  -42.9466   60.8359   59.7374 H   0  0  0  0  0  0  0  0  0  0  0  0
  -38.3897   59.0859   63.1073 H   0  0  0  0  0  0  0  0  0  0  0  0
  -38.6329   59.1137   61.3985 H   0  0  0  0  0  0  0  0  0  0  0  0
  -39.9737   57.0263   61.5647 H   0  0  0  0  0  0  0  0  0  0  0  0
  -39.7176   57.0175   63.2968 H   0  0  0  0  0  0  0  0  0  0  0  0
  -37.5783   56.8479   61.2048 H   0  0  0  0  0  0  0  0  0  0  0  0
  -38.2118   55.5163   62.2315 H   0  0  0  0  0  0  0  0  0  0  0  0
  -36.6804   57.8546   63.2328 H   0  0  0  0  0  0  0  0  0  0  0  0
  -36.0191   56.2751   62.9599 H   0  0  0  0  0  0  0  0  0  0  0  0
  -38.3570   56.9177   64.7532 H   0  0  0  0  0  0  0  0  0  0  0  0
  -36.7122   56.5221   65.2781 H   0  0  0  0  0  0  0  0  0  0  0  0
  -36.9281   54.3065   64.3615 H   0  0  0  0  0  0  0  0  0  0  0  0
  -38.5793   54.7128   63.8261 H   0  0  0  0  0  0  0  0  0  0  0  0
  -38.6072   53.3222   65.8201 H   0  0  0  0  0  0  0  0  0  0  0  0
  -39.2884   54.9351   66.0954 H   0  0  0  0  0  0  0  0  0  0  0  0
  -37.2437   55.6370   67.1941 H   0  0  0  0  0  0  0  0  0  0  0  0
  -36.5326   54.0578   66.9056 H   0  0  0  0  0  0  0  0  0  0  0  0
  -38.2512   53.0209   68.2701 H   0  0  0  0  0  0  0  0  0  0  0  0
  -38.9487   54.6439   68.5519 H   0  0  0  0  0  0  0  0  0  0  0  0
  -36.2774   53.7332   69.4953 H   0  0  0  0  0  0  0  0  0  0  0  0
  -37.7471   53.8597   70.4700 H   0  0  0  0  0  0  0  0  0  0  0  0
  -37.8396   56.2184   70.0617 H   0  0  0  0  0  0  0  0  0  0  0  0
  -36.3433   56.0648   69.0796 H   0  0  0  0  0  0  0  0  0  0  0  0
  -35.0756   55.5353   71.0228 H   0  0  0  0  0  0  0  0  0  0  0  0
  -36.4932   55.6020   72.0266 H   0  0  0  0  0  0  0  0  0  0  0  0
  -35.2609   57.6837   72.1387 H   0  0  0  0  0  0  0  0  0  0  0  0
  -36.8662   57.8780   71.3095 H   0  0  0  0  0  0  0  0  0  0  0  0
  -35.8249   58.1370   69.2416 H   0  0  0  0  0  0  0  0  0  0  0  0
  -34.2406   57.8867   69.9616 H   0  0  0  0  0  0  0  0  0  0  0  0
  -36.1170   60.1400   70.6090 H   0  0  0  0  0  0  0  0  0  0  0  0
  -34.6452   60.2269   69.6033 H   0  0  0  0  0  0  0  0  0  0  0  0
  -34.7020   59.6167   72.5281 H   0  0  0  0  0  0  0  0  0  0  0  0
  -34.2648   61.1661   71.7792 H   0  0  0  0  0  0  0  0  0  0  0  0
  -32.7847   58.5854   71.4390 H   0  0  0  0  0  0  0  0  0  0  0  0
  -32.2748   59.9395   72.4186 H   0  0  0  0  0  0  0  0  0  0  0  0
  -32.3804   60.1078   70.6827 H   0  0  0  0  0  0  0  0  0  0  0  0
  -36.0127   63.1808   65.8888 H   0  0  0  0  0  0  0  0  0  0  0  0
  -36.4595   63.3487   62.9234 H   0  0  0  0  0  0  0  0  0  0  0  0
  -34.1533   64.3446   64.5075 H   0  0  0  0  0  0  0  0  0  0  0  0
  -35.0370   66.5538   63.7488 H   0  0  0  0  0  0  0  0  0  0  0  0
  -36.0767   65.6460   65.8383 H   0  0  0  0  0  0  0  0  0  0  0  0
  -37.9544   66.9413   63.8283 H   0  0  0  0  0  0  0  0  0  0  0  0
  -37.9810   67.1774   65.5606 H   0  0  0  0  0  0  0  0  0  0  0  0
  1  4  1  0  0  0  0
  1 31  1  0  0  0  0
  1 56  1  0  0  0  0
  2  3  1  0  0  0  0
  2  4  1  0  0  0  0
  2 57  1  0  0  0  0
  2 58  1  0  0  0  0
  3 49  1  0  0  0  0
  4  6  1  0  0  0  0
  4 59  1  1  0  0  0
  5  6  1  0  0  0  0
  5 60  1  0  0  0  0
  6  8  1  0  0  0  0
  6 61  1  1  0  0  0
  7 31  2  0  0  0  0
  8  9  2  0  0  0  0
  8 62  1  0  0  0  0
  9 11  1  0  0  0  0
  9 63  1  0  0  0  0
 10 50  1  0  0  0  0
 10 64  1  0  0  0  0
 11 13  1  0  0  0  0
 11 65  1  0  0  0  0
 11 66  1  0  0  0  0
 12 51  1  0  0  0  0
 12 55  1  0  0  0  0
 13 15  1  0  0  0  0
 13 67  1  0  0  0  0
 13 68  1  0  0  0  0
 14 55  1  0  0  0  0
 14 69  1  0  0  0  0
 15 17  1  0  0  0  0
 15 70  1  0  0  0  0
 15 71  1  0  0  0  0
 16 52  1  0  0  0  0
 16 72  1  0  0  0  0
 17 19  1  0  0  0  0
 17 73  1  0  0  0  0
 17 74  1  0  0  0  0
 18 49  1  0  0  0  0
 18 53  1  0  0  0  0
 19 21  1  0  0  0  0
 19 75  1  0  0  0  0
 19 76  1  0  0  0  0
 20 54  1  0  0  0  0
 20 77  1  0  0  0  0
 21 22  1  0  0  0  0
 21 78  1  0  0  0  0
 21 79  1  0  0  0  0
 22 23  1  0  0  0  0
 22 80  1  0  0  0  0
 22 81  1  0  0  0  0
 23 25  1  0  0  0  0
 23 82  1  0  0  0  0
 23 83  1  0  0  0  0
 24 55  1  0  0  0  0
 25 27  1  0  0  0  0
 25 84  1  0  0  0  0
 25 85  1  0  0  0  0
 26 55  1  0  0  0  0
 26 86  1  0  0  0  0
 27 28  1  0  0  0  0
 27 87  1  0  0  0  0
 27 88  1  0  0  0  0
 28 29  1  0  0  0  0
 28 89  1  0  0  0  0
 28 90  1  0  0  0  0
 29 30  1  0  0  0  0
 29 91  1  0  0  0  0
 29 92  1  0  0  0  0
 30 93  1  0  0  0  0
 30 94  1  0  0  0  0
 30 95  1  0  0  0  0
 31 32  1  0  0  0  0
 32 33  1  0  0  0  0
 32 96  1  0  0  0  0
 32 97  1  0  0  0  0
 33 34  1  0  0  0  0
 33 98  1  0  0  0  0
 33 99  1  0  0  0  0
 34 35  1  0  0  0  0
 34100  1  0  0  0  0
 34101  1  0  0  0  0
 35 36  1  0  0  0  0
 35102  1  0  0  0  0
 35103  1  0  0  0  0
 36 37  1  0  0  0  0
 36104  1  0  0  0  0
 36105  1  0  0  0  0
 37 38  1  0  0  0  0
 37106  1  0  0  0  0
 37107  1  0  0  0  0
 38 39  1  0  0  0  0
 38108  1  0  0  0  0
 38109  1  0  0  0  0
 39 40  1  0  0  0  0
 39110  1  0  0  0  0
 39111  1  0  0  0  0
 40 41  1  0  0  0  0
 40112  1  0  0  0  0
 40113  1  0  0  0  0
 41 42  1  0  0  0  0
 41114  1  0  0  0  0
 41115  1  0  0  0  0
 42 43  1  0  0  0  0
 42116  1  0  0  0  0
 42117  1  0  0  0  0
 43 44  1  0  0  0  0
 43118  1  0  0  0  0
 43119  1  0  0  0  0
 44 45  1  0  0  0  0
 44120  1  0  0  0  0
 44121  1  0  0  0  0
 45 46  1  0  0  0  0
 45122  1  0  0  0  0
 45123  1  0  0  0  0
 46 47  1  0  0  0  0
 46124  1  0  0  0  0
 46125  1  0  0  0  0
 47 48  1  0  0  0  0
 47126  1  0  0  0  0
 47127  1  0  0  0  0
 48128  1  0  0  0  0
 48129  1  0  0  0  0
 48130  1  0  0  0  0
 49 50  1  0  0  0  0
 49131  1  1  0  0  0
 50 51  1  0  0  0  0
 50132  1  6  0  0  0
 51 52  1  0  0  0  0
 51133  1  1  0  0  0
 52 53  1  0  0  0  0
 52134  1  1  0  0  0
 53 54  1  0  0  0  0
 53135  1  1  0  0  0
 54136  1  0  0  0  0
 54137  1  0  0  0  0
M  CHG  1  24  -1
M  END
$$$$