/media/chris/experiments/cd1a-new-docking/inputs/ligands/1onq_ligand.pdb
 OpenBabel06222310383D

137137  0  0  1  0  0  0  0  0999 V2000
  -40.4920   60.2280   63.6270 N   0  0  0  0  0  0  0  0  0  0  0  0
  -38.5950   61.7730   64.2860 C   0  0  0  0  0  0  0  0  0  0  0  0
  -37.8612   61.7550   63.0352 O   0  0  0  0  0  0  0  0  0  0  0  0
  -39.4590   60.5300   64.5980 C   0  0  1  0  0  0  0  0  0  0  0  0
  -40.7577   59.2290   66.0180 O   0  0  0  0  0  0  0  0  0  0  0  0
  -40.2280   60.5370   65.9080 C   0  0  2  0  0  0  0  0  0  0  0  0
  -39.9037   58.1474   62.9395 O   0  0  0  0  0  0  0  0  0  0  0  0
  -41.3266   61.6007   65.8452 C   0  0  0  0  0  0  0  0  0  0  0  0
  -42.3197   61.5746   64.9400 C   0  0  0  0  0  0  0  0  0  0  0  0
  -38.5114   59.3151   61.6931 O   0  0  0  0  0  0  0  0  0  0  0  0
  -43.3792   62.6750   64.9418 C   0  0  0  0  0  0  0  0  0  0  0  0
  -40.8174   59.1130   59.8460 O   0  0  0  0  0  0  0  0  0  0  0  0
  -43.1731   63.7347   66.0340 C   0  0  0  0  0  0  0  0  0  0  0  0
  -40.5161   58.6869   57.3074 O   0  0  0  0  0  0  0  0  0  0  0  0
  -44.2286   64.8548   66.0835 C   0  0  0  0  0  0  0  0  0  0  0  0
  -42.0413   61.3535   60.8079 O   0  0  0  0  0  0  0  0  0  0  0  0
  -45.6366   64.2712   66.3524 C   0  0  0  0  0  0  0  0  0  0  0  0
  -39.4615   62.7663   61.5181 O   0  0  0  0  0  0  0  0  0  0  0  0
  -46.7846   65.3108   66.4062 C   0  0  0  0  0  0  0  0  0  0  0  0
  -42.2107   63.6474   61.0128 O   0  0  0  0  0  0  0  0  0  0  0  0
  -46.6069   66.3948   67.4953 C   0  0  0  0  0  0  0  0  0  0  0  0
  -45.3320   67.2472   67.3160 C   0  0  0  0  0  0  0  0  0  0  0  0
  -45.2883   68.0227   65.9940 C   0  0  0  0  0  0  0  0  0  0  0  0
  -42.4100   59.9891   58.0862 O   0  5  0  0  0  0  0  0  0  0  0  0
  -46.4116   69.0331   65.7708 C   0  0  0  0  0  0  0  0  0  0  0  0
  -42.3873   57.5819   58.3675 O   0  0  0  0  0  0  0  0  0  0  0  0
  -47.8232   68.4142   65.7913 C   0  0  0  0  0  0  0  0  0  0  0  0
  -48.9749   69.4025   65.5528 C   0  0  0  0  0  0  0  0  0  0  0  0
  -48.9792   70.5080   66.6124 C   0  0  0  0  0  0  0  0  0  0  0  0
  -50.0821   71.5458   66.5010 C   0  0  0  0  0  0  0  0  0  0  0  0
  -40.6403   59.1136   62.8978 C   0  0  0  0  0  0  0  0  0  0  0  0
  -41.8271   59.1049   61.9807 C   0  0  0  0  0  0  0  0  0  0  0  0
  -41.8145   57.7522   61.2685 C   0  0  0  0  0  0  0  0  0  0  0  0
  -41.9317   56.6238   62.2902 C   0  0  0  0  0  0  0  0  0  0  0  0
  -41.9163   55.2207   61.7336 C   0  0  0  0  0  0  0  0  0  0  0  0
  -42.0609   54.2578   62.9074 C   0  0  0  0  0  0  0  0  0  0  0  0
  -42.0420   52.7861   62.4728 C   0  0  0  0  0  0  0  0  0  0  0  0
  -43.1568   52.4054   61.4814 C   0  0  0  0  0  0  0  0  0  0  0  0
  -43.1190   50.9148   61.0789 C   0  0  0  0  0  0  0  0  0  0  0  0
  -41.7783   50.5655   60.4265 C   0  0  0  0  0  0  0  0  0  0  0  0
  -41.6394   49.1171   59.9736 C   0  0  0  0  0  0  0  0  0  0  0  0
  -40.2800   48.8348   59.3511 C   0  0  0  0  0  0  0  0  0  0  0  0
  -39.0676   49.0545   60.2588 C   0  0  0  0  0  0  0  0  0  0  0  0
  -37.8109   48.7398   59.4585 C   0  0  0  0  0  0  0  0  0  0  0  0
  -36.4587   48.8659   60.1445 C   0  0  0  0  0  0  0  0  0  0  0  0
  -36.2337   50.2971   60.6573 C   0  0  0  0  0  0  0  0  0  0  0  0
  -34.8781   50.5206   61.3527 C   0  0  0  0  0  0  0  0  0  0  0  0
  -34.6674   49.6211   62.5685 C   0  0  0  0  0  0  0  0  0  0  0  0
  -38.5606   61.6540   61.7388 C   0  0  2  0  0  0  0  0  0  0  0  0
  -39.3915   60.3820   61.5166 C   0  0  1  0  0  0  0  0  0  0  0  0
  -40.0015   60.2787   60.1015 C   0  0  2  0  0  0  0  0  0  0  0  0
  -40.9103   61.4669   59.9477 C   0  0  2  0  0  0  0  0  0  0  0  0
  -40.1398   62.7433   60.2332 C   0  0  1  0  0  0  0  0  0  0  0  0
  -41.2247   63.7999   60.0363 C   0  0  0  0  0  0  0  0  0  0  0  0
  -41.5470   58.8129   58.3798 S   0  0  0  0  0  0  0  0  0  0  0  0
  -41.1688   60.9288   63.4857 H   0  0  0  0  0  0  0  0  0  0  0  0
  -39.2437   62.6238   64.2698 H   0  0  0  0  0  0  0  0  0  0  0  0
  -37.8479   61.7974   65.0516 H   0  0  0  0  0  0  0  0  0  0  0  0
  -38.6677   59.8099   64.6092 H   0  0  0  0  0  0  0  0  0  0  0  0
  -40.0308   58.5878   66.0547 H   0  0  0  0  0  0  0  0  0  0  0  0
  -39.6247   60.7776   66.7583 H   0  0  0  0  0  0  0  0  0  0  0  0
  -41.3038   62.3732   66.5291 H   0  0  0  0  0  0  0  0  0  0  0  0
  -42.3663   60.8129   64.2453 H   0  0  0  0  0  0  0  0  0  0  0  0
  -38.1178   59.3636   62.5783 H   0  0  0  0  0  0  0  0  0  0  0  0
  -44.3367   62.2206   65.0895 H   0  0  0  0  0  0  0  0  0  0  0  0
  -43.3050   63.1795   64.0012 H   0  0  0  0  0  0  0  0  0  0  0  0
  -42.2178   64.1896   65.8748 H   0  0  0  0  0  0  0  0  0  0  0  0
  -43.2553   63.2143   66.9653 H   0  0  0  0  0  0  0  0  0  0  0  0
  -39.9585   59.4805   57.3000 H   0  0  0  0  0  0  0  0  0  0  0  0
  -44.2360   65.3716   65.1466 H   0  0  0  0  0  0  0  0  0  0  0  0
  -43.9784   65.5271   66.8775 H   0  0  0  0  0  0  0  0  0  0  0  0
  -42.5180   60.5326   60.6086 H   0  0  0  0  0  0  0  0  0  0  0  0
  -45.6088   63.7603   67.2922 H   0  0  0  0  0  0  0  0  0  0  0  0
  -45.8552   63.6313   65.5232 H   0  0  0  0  0  0  0  0  0  0  0  0
  -47.7000   64.7905   66.5966 H   0  0  0  0  0  0  0  0  0  0  0  0
  -46.7847   65.8181   65.4642 H   0  0  0  0  0  0  0  0  0  0  0  0
  -42.8984   64.3195   60.8856 H   0  0  0  0  0  0  0  0  0  0  0  0
  -46.5598   65.9118   68.4489 H   0  0  0  0  0  0  0  0  0  0  0  0
  -47.4423   67.0588   67.4167 H   0  0  0  0  0  0  0  0  0  0  0  0
  -44.4831   66.5970   67.3542 H   0  0  0  0  0  0  0  0  0  0  0  0
  -45.3278   67.9719   68.1033 H   0  0  0  0  0  0  0  0  0  0  0  0
  -45.3254   67.3110   65.1959 H   0  0  0  0  0  0  0  0  0  0  0  0
  -44.3866   68.5979   66.0275 H   0  0  0  0  0  0  0  0  0  0  0  0
  -46.2618   69.4983   64.8190 H   0  0  0  0  0  0  0  0  0  0  0  0
  -46.3670   69.7304   66.5812 H   0  0  0  0  0  0  0  0  0  0  0  0
  -41.8322   56.8096   58.5582 H   0  0  0  0  0  0  0  0  0  0  0  0
  -47.9709   67.9587   66.7482 H   0  0  0  0  0  0  0  0  0  0  0  0
  -47.8546   67.7201   64.9776 H   0  0  0  0  0  0  0  0  0  0  0  0
  -49.9041   68.8736   65.5955 H   0  0  0  0  0  0  0  0  0  0  0  0
  -48.8433   69.8530   64.5912 H   0  0  0  0  0  0  0  0  0  0  0  0
  -48.0422   71.0210   66.5514 H   0  0  0  0  0  0  0  0  0  0  0  0
  -49.1515   70.0090   67.5431 H   0  0  0  0  0  0  0  0  0  0  0  0
  -49.9707   72.0876   65.5850 H   0  0  0  0  0  0  0  0  0  0  0  0
  -50.0186   72.2237   67.3264 H   0  0  0  0  0  0  0  0  0  0  0  0
  -51.0340   71.0573   66.5130 H   0  0  0  0  0  0  0  0  0  0  0  0
  -41.7493   59.8990   61.2677 H   0  0  0  0  0  0  0  0  0  0  0  0
  -42.7376   59.2479   62.5242 H   0  0  0  0  0  0  0  0  0  0  0  0
  -40.8983   57.6457   60.7262 H   0  0  0  0  0  0  0  0  0  0  0  0
  -42.6433   57.7027   60.5934 H   0  0  0  0  0  0  0  0  0  0  0  0
  -42.8525   56.7557   62.8190 H   0  0  0  0  0  0  0  0  0  0  0  0
  -41.0585   56.6995   62.9039 H   0  0  0  0  0  0  0  0  0  0  0  0
  -40.9924   55.0400   61.2251 H   0  0  0  0  0  0  0  0  0  0  0  0
  -42.7153   55.0846   61.0351 H   0  0  0  0  0  0  0  0  0  0  0  0
  -42.9891   54.4569   63.4010 H   0  0  0  0  0  0  0  0  0  0  0  0
  -41.2253   54.4132   63.5574 H   0  0  0  0  0  0  0  0  0  0  0  0
  -42.1476   52.1772   63.3463 H   0  0  0  0  0  0  0  0  0  0  0  0
  -41.1131   52.6275   61.9660 H   0  0  0  0  0  0  0  0  0  0  0  0
  -43.0469   53.0004   60.5989 H   0  0  0  0  0  0  0  0  0  0  0  0
  -44.0934   52.5834   61.9672 H   0  0  0  0  0  0  0  0  0  0  0  0
  -43.9094   50.7179   60.3850 H   0  0  0  0  0  0  0  0  0  0  0  0
  -43.2403   50.3173   61.9582 H   0  0  0  0  0  0  0  0  0  0  0  0
  -41.0021   50.7675   61.1348 H   0  0  0  0  0  0  0  0  0  0  0  0
  -41.7124   51.1628   59.5412 H   0  0  0  0  0  0  0  0  0  0  0  0
  -42.3993   48.9085   59.2498 H   0  0  0  0  0  0  0  0  0  0  0  0
  -41.7401   48.4930   60.8369 H   0  0  0  0  0  0  0  0  0  0  0  0
  -40.1712   49.4731   58.4993 H   0  0  0  0  0  0  0  0  0  0  0  0
  -40.2807   47.7904   59.1186 H   0  0  0  0  0  0  0  0  0  0  0  0
  -39.1283   48.4059   61.1077 H   0  0  0  0  0  0  0  0  0  0  0  0
  -39.0424   50.0672   60.6033 H   0  0  0  0  0  0  0  0  0  0  0  0
  -37.7999   49.3998   58.6164 H   0  0  0  0  0  0  0  0  0  0  0  0
  -37.8958   47.6957   59.2402 H   0  0  0  0  0  0  0  0  0  0  0  0
  -35.6871   48.6191   59.4455 H   0  0  0  0  0  0  0  0  0  0  0  0
  -36.4357   48.1968   60.9792 H   0  0  0  0  0  0  0  0  0  0  0  0
  -37.0100   50.5275   61.3567 H   0  0  0  0  0  0  0  0  0  0  0  0
  -36.2430   50.9335   59.7972 H   0  0  0  0  0  0  0  0  0  0  0  0
  -34.8240   51.5406   61.6714 H   0  0  0  0  0  0  0  0  0  0  0  0
  -34.1144   50.2787   60.6434 H   0  0  0  0  0  0  0  0  0  0  0  0
  -35.4153   49.8340   63.3036 H   0  0  0  0  0  0  0  0  0  0  0  0
  -33.6979   49.8030   62.9830 H   0  0  0  0  0  0  0  0  0  0  0  0
  -34.7415   48.5960   62.2709 H   0  0  0  0  0  0  0  0  0  0  0  0
  -37.7424   61.6445   61.0494 H   0  0  0  0  0  0  0  0  0  0  0  0
  -40.2149   60.3859   62.1999 H   0  0  0  0  0  0  0  0  0  0  0  0
  -39.1765   60.2247   59.4222 H   0  0  0  0  0  0  0  0  0  0  0  0
  -41.2692   61.4994   58.9402 H   0  0  0  0  0  0  0  0  0  0  0  0
  -39.2944   62.8932   59.5947 H   0  0  0  0  0  0  0  0  0  0  0  0
  -40.7911   64.7747   60.1175 H   0  0  0  0  0  0  0  0  0  0  0  0
  -41.6634   63.6821   59.0675 H   0  0  0  0  0  0  0  0  0  0  0  0
  1  4  1  0  0  0  0
  1 31  1  0  0  0  0
  1 56  1  0  0  0  0
  2  3  1  0  0  0  0
  2  4  1  0  0  0  0
  2 57  1  0  0  0  0
  2 58  1  0  0  0  0
  3 49  1  0  0  0  0
  4  6  1  0  0  0  0
  4 59  1  1  0  0  0
  5  6  1  0  0  0  0
  5 60  1  0  0  0  0
  6  8  1  0  0  0  0
  6 61  1  1  0  0  0
  7 31  2  0  0  0  0
  8  9  2  0  0  0  0
  8 62  1  0  0  0  0
  9 11  1  0  0  0  0
  9 63  1  0  0  0  0
 10 50  1  0  0  0  0
 10 64  1  0  0  0  0
 11 13  1  0  0  0  0
 11 65  1  0  0  0  0
 11 66  1  0  0  0  0
 12 51  1  0  0  0  0
 12 55  1  0  0  0  0
 13 15  1  0  0  0  0
 13 67  1  0  0  0  0
 13 68  1  0  0  0  0
 14 55  1  0  0  0  0
 14 69  1  0  0  0  0
 15 17  1  0  0  0  0
 15 70  1  0  0  0  0
 15 71  1  0  0  0  0
 16 52  1  0  0  0  0
 16 72  1  0  0  0  0
 17 19  1  0  0  0  0
 17 73  1  0  0  0  0
 17 74  1  0  0  0  0
 18 49  1  0  0  0  0
 18 53  1  0  0  0  0
 19 21  1  0  0  0  0
 19 75  1  0  0  0  0
 19 76  1  0  0  0  0
 20 54  1  0  0  0  0
 20 77  1  0  0  0  0
 21 22  1  0  0  0  0
 21 78  1  0  0  0  0
 21 79  1  0  0  0  0
 22 23  1  0  0  0  0
 22 80  1  0  0  0  0
 22 81  1  0  0  0  0
 23 25  1  0  0  0  0
 23 82  1  0  0  0  0
 23 83  1  0  0  0  0
 24 55  1  0  0  0  0
 25 27  1  0  0  0  0
 25 84  1  0  0  0  0
 25 85  1  0  0  0  0
 26 55  1  0  0  0  0
 26 86  1  0  0  0  0
 27 28  1  0  0  0  0
 27 87  1  0  0  0  0
 27 88  1  0  0  0  0
 28 29  1  0  0  0  0
 28 89  1  0  0  0  0
 28 90  1  0  0  0  0
 29 30  1  0  0  0  0
 29 91  1  0  0  0  0
 29 92  1  0  0  0  0
 30 93  1  0  0  0  0
 30 94  1  0  0  0  0
 30 95  1  0  0  0  0
 31 32  1  0  0  0  0
 32 33  1  0  0  0  0
 32 96  1  0  0  0  0
 32 97  1  0  0  0  0
 33 34  1  0  0  0  0
 33 98  1  0  0  0  0
 33 99  1  0  0  0  0
 34 35  1  0  0  0  0
 34100  1  0  0  0  0
 34101  1  0  0  0  0
 35 36  1  0  0  0  0
 35102  1  0  0  0  0
 35103  1  0  0  0  0
 36 37  1  0  0  0  0
 36104  1  0  0  0  0
 36105  1  0  0  0  0
 37 38  1  0  0  0  0
 37106  1  0  0  0  0
 37107  1  0  0  0  0
 38 39  1  0  0  0  0
 38108  1  0  0  0  0
 38109  1  0  0  0  0
 39 40  1  0  0  0  0
 39110  1  0  0  0  0
 39111  1  0  0  0  0
 40 41  1  0  0  0  0
 40112  1  0  0  0  0
 40113  1  0  0  0  0
 41 42  1  0  0  0  0
 41114  1  0  0  0  0
 41115  1  0  0  0  0
 42 43  1  0  0  0  0
 42116  1  0  0  0  0
 42117  1  0  0  0  0
 43 44  1  0  0  0  0
 43118  1  0  0  0  0
 43119  1  0  0  0  0
 44 45  1  0  0  0  0
 44120  1  0  0  0  0
 44121  1  0  0  0  0
 45 46  1  0  0  0  0
 45122  1  0  0  0  0
 45123  1  0  0  0  0
 46 47  1  0  0  0  0
 46124  1  0  0  0  0
 46125  1  0  0  0  0
 47 48  1  0  0  0  0
 47126  1  0  0  0  0
 47127  1  0  0  0  0
 48128  1  0  0  0  0
 48129  1  0  0  0  0
 48130  1  0  0  0  0
 49 50  1  0  0  0  0
 49131  1  6  0  0  0
 50 51  1  0  0  0  0
 50132  1  1  0  0  0
 51 52  1  0  0  0  0
 51133  1  6  0  0  0
 52 53  1  0  0  0  0
 52134  1  6  0  0  0
 53 54  1  0  0  0  0
 53135  1  6  0  0  0
 54136  1  0  0  0  0
 54137  1  0  0  0  0
M  CHG  1  24  -1
M  END
$$$$