/media/chris/experiments/cd1a-new-docking/inputs/ligands/4x6e_ligand.pdb
 OpenBabel07012320273D

 88 87  0  0  1  0  0  0  0  0999 V2000
  -39.2490   69.3318   62.1944 N   0  0  0  0  0  4  0  0  0  0  0  0
  -41.7409   63.0292   65.3535 C   0  0  1  0  0  0  0  0  0  0  0  0
  -41.0970   63.4409   66.5668 O   0  0  0  0  0  0  0  0  0  0  0  0
  -40.1602   65.9772   65.1668 P   0  0  1  0  0  0  0  0  0  0  0  0
  -42.2844   64.2426   64.6361 C   0  0  0  0  0  0  0  0  0  0  0  0
  -41.2337   65.1749   64.2836 O   0  0  0  0  0  0  0  0  0  0  0  0
  -40.6674   68.5036   64.1753 C   0  0  0  0  0  0  0  0  0  0  0  0
  -38.9037   65.1167   65.2888 O   0  5  0  0  0  0  0  0  0  0  0  0
  -39.9244   69.6402   63.5178 C   0  0  0  0  0  0  0  0  0  0  0  0
  -39.7557   67.4098   64.4676 O   0  0  0  0  0  0  0  0  0  0  0  0
  -38.2477   68.2342   62.3606 C   0  0  0  0  0  0  0  0  0  0  0  0
  -40.7209   66.1857   66.5198 O   0  0  0  0  0  0  0  0  0  0  0  0
  -38.5473   70.5613   61.7187 C   0  0  0  0  0  0  0  0  0  0  0  0
  -40.3646   61.0134   65.1616 O   0  0  0  0  0  0  0  0  0  0  0  0
  -40.2644   68.9109   61.1706 C   0  0  0  0  0  0  0  0  0  0  0  0
  -41.5829   59.4037   64.1731 O   0  0  0  0  0  0  0  0  0  0  0  0
  -40.8026   62.2143   64.4888 C   0  0  0  0  0  0  0  0  0  0  0  0
  -41.1924   59.9644   65.1670 C   0  0  0  0  0  0  0  0  0  0  0  0
  -41.5470   59.5850   66.5720 C   0  0  0  0  0  0  0  0  0  0  0  0
  -42.4780   58.3810   66.6510 C   0  0  0  0  0  0  0  0  0  0  0  0
  -43.8050   58.5690   65.9360 C   0  0  0  0  0  0  0  0  0  0  0  0
  -44.6170   59.7376   66.4663 C   0  0  0  0  0  0  0  0  0  0  0  0
  -43.9014   61.0697   66.3219 C   0  0  0  0  0  0  0  0  0  0  0  0
  -44.7168   62.2195   66.8702 C   0  0  0  0  0  0  0  0  0  0  0  0
  -45.0441   62.1185   68.3462 C   0  0  0  0  0  0  0  0  0  0  0  0
  -45.8565   63.2436   68.8623 C   0  0  0  0  0  0  0  0  0  0  0  0
  -45.3921   64.3656   69.3726 C   0  0  0  0  0  0  0  0  0  0  0  0
  -43.9606   64.7716   69.5080 C   0  0  0  0  0  0  0  0  0  0  0  0
  -43.4078   64.3108   70.8577 C   0  0  0  0  0  0  0  0  0  0  0  0
  -41.9563   64.6789   71.1278 C   0  0  0  0  0  0  0  0  0  0  0  0
  -41.6621   66.1741   71.1387 C   0  0  0  0  0  0  0  0  0  0  0  0
  -42.4350   66.9392   72.2079 C   0  0  0  0  0  0  0  0  0  0  0  0
  -42.1579   68.4342   72.2119 C   0  0  0  0  0  0  0  0  0  0  0  0
  -42.5139   69.1662   70.9266 C   0  0  0  0  0  0  0  0  0  0  0  0
  -43.9697   69.0683   70.5880 C   0  0  0  0  0  0  0  0  0  0  0  0
  -42.5651   62.3876   65.5858 H   0  0  0  0  0  0  0  0  0  0  0  0
  -40.3500   64.0225   66.3552 H   0  0  0  0  0  0  0  0  0  0  0  0
  -42.9861   64.7371   65.2748 H   0  0  0  0  0  0  0  0  0  0  0  0
  -42.7527   63.9125   63.7325 H   0  0  0  0  0  0  0  0  0  0  0  0
  -41.4363   68.1564   63.5172 H   0  0  0  0  0  0  0  0  0  0  0  0
  -41.0992   68.8519   65.0903 H   0  0  0  0  0  0  0  0  0  0  0  0
  -40.6245   70.4316   63.3489 H   0  0  0  0  0  0  0  0  0  0  0  0
  -39.1297   69.8859   64.1909 H   0  0  0  0  0  0  0  0  0  0  0  0
  -37.5187   68.5236   63.0885 H   0  0  0  0  0  0  0  0  0  0  0  0
  -37.7631   68.0488   61.4248 H   0  0  0  0  0  0  0  0  0  0  0  0
  -38.7444   67.3446   62.6875 H   0  0  0  0  0  0  0  0  0  0  0  0
  -40.9511   65.3281   66.9102 H   0  0  0  0  0  0  0  0  0  0  0  0
  -37.8234   70.8630   62.4467 H   0  0  0  0  0  0  0  0  0  0  0  0
  -39.2600   71.3468   61.5777 H   0  0  0  0  0  0  0  0  0  0  0  0
  -38.0556   70.3550   60.7911 H   0  0  0  0  0  0  0  0  0  0  0  0
  -40.7685   68.0300   61.5094 H   0  0  0  0  0  0  0  0  0  0  0  0
  -39.7718   68.7055   60.2432 H   0  0  0  0  0  0  0  0  0  0  0  0
  -40.9762   69.6973   61.0298 H   0  0  0  0  0  0  0  0  0  0  0  0
  -39.9464   62.8098   64.2494 H   0  0  0  0  0  0  0  0  0  0  0  0
  -41.3295   61.9274   63.6028 H   0  0  0  0  0  0  0  0  0  0  0  0
  -42.0288   60.4189   67.0383 H   0  0  0  0  0  0  0  0  0  0  0  0
  -40.6378   59.3175   67.0687 H   0  0  0  0  0  0  0  0  0  0  0  0
  -42.6787   58.1797   67.6825 H   0  0  0  0  0  0  0  0  0  0  0  0
  -41.9769   57.5734   66.1596 H   0  0  0  0  0  0  0  0  0  0  0  0
  -44.3819   57.6753   66.0516 H   0  0  0  0  0  0  0  0  0  0  0  0
  -43.5836   58.7785   64.9103 H   0  0  0  0  0  0  0  0  0  0  0  0
  -44.8195   59.5696   67.5034 H   0  0  0  0  0  0  0  0  0  0  0  0
  -45.5158   59.7920   65.8883 H   0  0  0  0  0  0  0  0  0  0  0  0
  -43.7100   61.2472   65.2842 H   0  0  0  0  0  0  0  0  0  0  0  0
  -42.9915   61.0159   66.8824 H   0  0  0  0  0  0  0  0  0  0  0  0
  -45.6377   62.2634   66.3272 H   0  0  0  0  0  0  0  0  0  0  0  0
  -44.1162   63.0973   66.7540 H   0  0  0  0  0  0  0  0  0  0  0  0
  -44.1250   62.0887   68.8932 H   0  0  0  0  0  0  0  0  0  0  0  0
  -45.6288   61.2314   68.4732 H   0  0  0  0  0  0  0  0  0  0  0  0
  -46.8822   63.1391   68.8180 H   0  0  0  0  0  0  0  0  0  0  0  0
  -46.0947   65.0385   69.7170 H   0  0  0  0  0  0  0  0  0  0  0  0
  -43.8872   65.8370   69.4408 H   0  0  0  0  0  0  0  0  0  0  0  0
  -43.3923   64.3169   68.7236 H   0  0  0  0  0  0  0  0  0  0  0  0
  -43.4922   63.2451   70.9026 H   0  0  0  0  0  0  0  0  0  0  0  0
  -43.9846   64.8192   71.6019 H   0  0  0  0  0  0  0  0  0  0  0  0
  -41.3526   64.2274   70.3685 H   0  0  0  0  0  0  0  0  0  0  0  0
  -41.7361   64.3237   72.1128 H   0  0  0  0  0  0  0  0  0  0  0  0
  -41.9197   66.5767   70.1814 H   0  0  0  0  0  0  0  0  0  0  0  0
  -40.6216   66.2882   71.3608 H   0  0  0  0  0  0  0  0  0  0  0  0
  -42.1679   66.5438   73.1656 H   0  0  0  0  0  0  0  0  0  0  0  0
  -43.4753   66.8152   71.9900 H   0  0  0  0  0  0  0  0  0  0  0  0
  -41.1131   68.5760   72.3942 H   0  0  0  0  0  0  0  0  0  0  0  0
  -42.7866   68.8491   72.9718 H   0  0  0  0  0  0  0  0  0  0  0  0
  -41.9469   68.7432   70.1238 H   0  0  0  0  0  0  0  0  0  0  0  0
  -42.2853   70.2014   71.0712 H   0  0  0  0  0  0  0  0  0  0  0  0
  -44.2325   68.0422   70.4365 H   0  0  0  0  0  0  0  0  0  0  0  0
  -44.1660   69.6225   69.6940 H   0  0  0  0  0  0  0  0  0  0  0  0
  -44.5506   69.4704   71.3916 H   0  0  0  0  0  0  0  0  0  0  0  0
  1  9  1  0  0  0  0
  1 11  1  0  0  0  0
  1 13  1  0  0  0  0
  1 15  1  0  0  0  0
  2  3  1  0  0  0  0
  2  5  1  0  0  0  0
  2 17  1  0  0  0  0
  2 36  1  1  0  0  0
  3 37  1  0  0  0  0
  4  6  1  0  0  0  0
  4  8  2  1  0  0  0
  4 10  1  0  0  0  0
  4 12  1  0  0  0  0
  5  6  1  0  0  0  0
  5 38  1  0  0  0  0
  5 39  1  0  0  0  0
  7  9  1  0  0  0  0
  7 10  1  0  0  0  0
  7 40  1  0  0  0  0
  7 41  1  0  0  0  0
  9 42  1  0  0  0  0
  9 43  1  0  0  0  0
 11 44  1  0  0  0  0
 11 45  1  0  0  0  0
 11 46  1  0  0  0  0
 12 47  1  0  0  0  0
 13 48  1  0  0  0  0
 13 49  1  0  0  0  0
 13 50  1  0  0  0  0
 14 17  1  0  0  0  0
 14 18  1  0  0  0  0
 15 51  1  0  0  0  0
 15 52  1  0  0  0  0
 15 53  1  0  0  0  0
 16 18  2  0  0  0  0
 17 54  1  0  0  0  0
 17 55  1  0  0  0  0
 18 19  1  0  0  0  0
 19 20  1  0  0  0  0
 19 56  1  0  0  0  0
 19 57  1  0  0  0  0
 20 21  1  0  0  0  0
 20 58  1  0  0  0  0
 20 59  1  0  0  0  0
 21 22  1  0  0  0  0
 21 60  1  0  0  0  0
 21 61  1  0  0  0  0
 22 23  1  0  0  0  0
 22 62  1  0  0  0  0
 22 63  1  0  0  0  0
 23 24  1  0  0  0  0
 23 64  1  0  0  0  0
 23 65  1  0  0  0  0
 24 25  1  0  0  0  0
 24 66  1  0  0  0  0
 24 67  1  0  0  0  0
 25 26  1  0  0  0  0
 25 68  1  0  0  0  0
 25 69  1  0  0  0  0
 26 27  2  0  0  0  0
 26 70  1  0  0  0  0
 27 28  1  0  0  0  0
 27 71  1  0  0  0  0
 28 29  1  0  0  0  0
 28 72  1  0  0  0  0
 28 73  1  0  0  0  0
 29 30  1  0  0  0  0
 29 74  1  0  0  0  0
 29 75  1  0  0  0  0
 30 31  1  0  0  0  0
 30 76  1  0  0  0  0
 30 77  1  0  0  0  0
 31 32  1  0  0  0  0
 31 78  1  0  0  0  0
 31 79  1  0  0  0  0
 32 33  1  0  0  0  0
 32 80  1  0  0  0  0
 32 81  1  0  0  0  0
 33 34  1  0  0  0  0
 33 82  1  0  0  0  0
 33 83  1  0  0  0  0
 34 35  1  0  0  0  0
 34 84  1  0  0  0  0
 34 85  1  0  0  0  0
 35 86  1  0  0  0  0
 35 87  1  0  0  0  0
 35 88  1  0  0  0  0
M  CHG  1   8  -1
M  END
$$$$