/media/chris/experiments/cd1a-new-docking/inputs/ligands/4x6e_ligand.pdb
 OpenBabel07012320273D

 88 87  0  0  1  0  0  0  0  0999 V2000
  -41.4256   69.6744   67.1165 N   0  0  0  0  0  4  0  0  0  0  0  0
  -41.9390   63.2524   69.1312 C   0  0  1  0  0  0  0  0  0  0  0  0
  -42.9291   62.9931   70.1357 O   0  0  0  0  0  0  0  0  0  0  0  0
  -39.0621   65.9853   68.4186 P   0  0  1  0  0  0  0  0  0  0  0  0
  -41.1589   64.4917   69.5025 C   0  0  0  0  0  0  0  0  0  0  0  0
  -40.1525   64.8112   68.5114 O   0  0  0  0  0  0  0  0  0  0  0  0
  -40.6645   67.2760   66.5776 C   0  0  0  0  0  0  0  0  0  0  0  0
  -37.8515   65.4532   67.6534 O   0  5  0  0  0  0  0  0  0  0  0  0
  -40.9339   68.6762   66.0847 C   0  0  0  0  0  0  0  0  0  0  0  0
  -39.6563   67.2973   67.6246 O   0  0  0  0  0  0  0  0  0  0  0  0
  -40.4149   69.8433   68.2051 C   0  0  0  0  0  0  0  0  0  0  0  0
  -38.6330   66.3426   69.7885 O   0  0  0  0  0  0  0  0  0  0  0  0
  -42.6966   69.1611   67.7094 C   0  0  0  0  0  0  0  0  0  0  0  0
  -41.8036   60.8958   68.4808 O   0  0  0  0  0  0  0  0  0  0  0  0
  -41.6784   71.0104   66.4780 C   0  0  0  0  0  0  0  0  0  0  0  0
  -42.7891   61.6453   66.6047 O   0  0  0  0  0  0  0  0  0  0  0  0
  -41.0486   62.0461   68.9207 C   0  0  0  0  0  0  0  0  0  0  0  0
  -42.1287   60.8209   67.1868 C   0  0  0  0  0  0  0  0  0  0  0  0
  -41.5470   59.5850   66.5720 C   0  0  0  0  0  0  0  0  0  0  0  0
  -42.4780   58.3810   66.6510 C   0  0  0  0  0  0  0  0  0  0  0  0
  -43.8050   58.5690   65.9360 C   0  0  0  0  0  0  0  0  0  0  0  0
  -43.6578   58.8291   64.4471 C   0  0  0  0  0  0  0  0  0  0  0  0
  -44.9905   59.0322   63.7470 C   0  0  0  0  0  0  0  0  0  0  0  0
  -45.7496   60.2198   64.2955 C   0  0  0  0  0  0  0  0  0  0  0  0
  -45.0364   61.5492   64.1547 C   0  0  0  0  0  0  0  0  0  0  0  0
  -45.7864   62.6981   64.7114 C   0  0  0  0  0  0  0  0  0  0  0  0
  -45.7351   63.9410   64.2787 C   0  0  0  0  0  0  0  0  0  0  0  0
  -44.9514   64.4614   63.1178 C   0  0  0  0  0  0  0  0  0  0  0  0
  -45.1625   65.9694   62.9735 C   0  0  0  0  0  0  0  0  0  0  0  0
  -44.7260   66.8061   64.1672 C   0  0  0  0  0  0  0  0  0  0  0  0
  -43.2460   66.7074   64.5163 C   0  0  0  0  0  0  0  0  0  0  0  0
  -42.3230   67.1690   63.3933 C   0  0  0  0  0  0  0  0  0  0  0  0
  -40.8447   67.0566   63.7304 C   0  0  0  0  0  0  0  0  0  0  0  0
  -39.8908   67.5234   62.6410 C   0  0  0  0  0  0  0  0  0  0  0  0
  -38.4515   67.3717   63.0269 C   0  0  0  0  0  0  0  0  0  0  0  0
  -42.4203   63.4350   68.1932 H   0  0  0  0  0  0  0  0  0  0  0  0
  -42.4918   62.8276   70.9856 H   0  0  0  0  0  0  0  0  0  0  0  0
  -40.6779   64.3288   70.4444 H   0  0  0  0  0  0  0  0  0  0  0  0
  -41.8440   65.3118   69.5570 H   0  0  0  0  0  0  0  0  0  0  0  0
  -40.3158   66.6757   65.7634 H   0  0  0  0  0  0  0  0  0  0  0  0
  -41.5698   66.8651   66.9732 H   0  0  0  0  0  0  0  0  0  0  0  0
  -40.0227   69.0568   65.6726 H   0  0  0  0  0  0  0  0  0  0  0  0
  -41.7338   68.5795   65.3805 H   0  0  0  0  0  0  0  0  0  0  0  0
  -40.2270   68.8967   68.6673 H   0  0  0  0  0  0  0  0  0  0  0  0
  -40.7893   70.5291   68.9361 H   0  0  0  0  0  0  0  0  0  0  0  0
  -39.5051   70.2249   67.7910 H   0  0  0  0  0  0  0  0  0  0  0  0
  -38.2872   65.5540   70.2351 H   0  0  0  0  0  0  0  0  0  0  0  0
  -42.5188   68.2093   68.1648 H   0  0  0  0  0  0  0  0  0  0  0  0
  -43.4324   69.0563   66.9397 H   0  0  0  0  0  0  0  0  0  0  0  0
  -43.0491   69.8499   68.4484 H   0  0  0  0  0  0  0  0  0  0  0  0
  -40.7689   71.3801   66.0524 H   0  0  0  0  0  0  0  0  0  0  0  0
  -42.0314   71.6981   67.2177 H   0  0  0  0  0  0  0  0  0  0  0  0
  -42.4148   70.9046   65.7090 H   0  0  0  0  0  0  0  0  0  0  0  0
  -40.5615   61.8092   69.8434 H   0  0  0  0  0  0  0  0  0  0  0  0
  -40.3343   62.2870   68.1613 H   0  0  0  0  0  0  0  0  0  0  0  0
  -40.6379   59.3462   67.0832 H   0  0  0  0  0  0  0  0  0  0  0  0
  -41.3821   59.7924   65.5353 H   0  0  0  0  0  0  0  0  0  0  0  0
  -42.6787   58.1797   67.6825 H   0  0  0  0  0  0  0  0  0  0  0  0
  -41.9769   57.5734   66.1596 H   0  0  0  0  0  0  0  0  0  0  0  0
  -44.3126   59.4014   66.3769 H   0  0  0  0  0  0  0  0  0  0  0  0
  -44.3534   57.6566   66.0440 H   0  0  0  0  0  0  0  0  0  0  0  0
  -43.1625   57.9917   64.0018 H   0  0  0  0  0  0  0  0  0  0  0  0
  -43.0949   59.7319   64.3334 H   0  0  0  0  0  0  0  0  0  0  0  0
  -45.5857   58.1527   63.8776 H   0  0  0  0  0  0  0  0  0  0  0  0
  -44.7924   59.2187   62.7122 H   0  0  0  0  0  0  0  0  0  0  0  0
  -45.9307   60.0476   65.3359 H   0  0  0  0  0  0  0  0  0  0  0  0
  -46.6472   60.2966   63.7181 H   0  0  0  0  0  0  0  0  0  0  0  0
  -44.8665   61.7311   63.1140 H   0  0  0  0  0  0  0  0  0  0  0  0
  -44.1274   61.4732   64.7141 H   0  0  0  0  0  0  0  0  0  0  0  0
  -46.4072   62.5071   65.5134 H   0  0  0  0  0  0  0  0  0  0  0  0
  -46.2983   64.6318   64.7989 H   0  0  0  0  0  0  0  0  0  0  0  0
  -45.2762   63.9715   62.2237 H   0  0  0  0  0  0  0  0  0  0  0  0
  -43.9120   64.2679   63.2825 H   0  0  0  0  0  0  0  0  0  0  0  0
  -46.2060   66.1429   62.8125 H   0  0  0  0  0  0  0  0  0  0  0  0
  -44.5447   66.2770   62.1558 H   0  0  0  0  0  0  0  0  0  0  0  0
  -45.2900   66.4883   65.0192 H   0  0  0  0  0  0  0  0  0  0  0  0
  -44.9022   67.8265   63.8975 H   0  0  0  0  0  0  0  0  0  0  0  0
  -43.0190   65.6867   64.7431 H   0  0  0  0  0  0  0  0  0  0  0  0
  -43.0757   67.3563   65.3499 H   0  0  0  0  0  0  0  0  0  0  0  0
  -42.5426   68.1933   63.1753 H   0  0  0  0  0  0  0  0  0  0  0  0
  -42.5024   66.5255   62.5574 H   0  0  0  0  0  0  0  0  0  0  0  0
  -40.6306   66.0292   63.9388 H   0  0  0  0  0  0  0  0  0  0  0  0
  -40.6817   67.7070   64.5642 H   0  0  0  0  0  0  0  0  0  0  0  0
  -40.0833   68.5560   62.4373 H   0  0  0  0  0  0  0  0  0  0  0  0
  -40.0601   66.9111   61.7800 H   0  0  0  0  0  0  0  0  0  0  0  0
  -38.2478   67.9734   63.8880 H   0  0  0  0  0  0  0  0  0  0  0  0
  -37.8295   67.6879   62.2156 H   0  0  0  0  0  0  0  0  0  0  0  0
  -38.2489   66.3456   63.2527 H   0  0  0  0  0  0  0  0  0  0  0  0
  1  9  1  0  0  0  0
  1 11  1  0  0  0  0
  1 13  1  0  0  0  0
  1 15  1  0  0  0  0
  2  3  1  0  0  0  0
  2  5  1  0  0  0  0
  2 17  1  0  0  0  0
  2 36  1  6  0  0  0
  3 37  1  0  0  0  0
  4  6  1  0  0  0  0
  4  8  2  6  0  0  0
  4 10  1  0  0  0  0
  4 12  1  0  0  0  0
  5  6  1  0  0  0  0
  5 38  1  0  0  0  0
  5 39  1  0  0  0  0
  7  9  1  0  0  0  0
  7 10  1  0  0  0  0
  7 40  1  0  0  0  0
  7 41  1  0  0  0  0
  9 42  1  0  0  0  0
  9 43  1  0  0  0  0
 11 44  1  0  0  0  0
 11 45  1  0  0  0  0
 11 46  1  0  0  0  0
 12 47  1  0  0  0  0
 13 48  1  0  0  0  0
 13 49  1  0  0  0  0
 13 50  1  0  0  0  0
 14 17  1  0  0  0  0
 14 18  1  0  0  0  0
 15 51  1  0  0  0  0
 15 52  1  0  0  0  0
 15 53  1  0  0  0  0
 16 18  2  0  0  0  0
 17 54  1  0  0  0  0
 17 55  1  0  0  0  0
 18 19  1  0  0  0  0
 19 20  1  0  0  0  0
 19 56  1  0  0  0  0
 19 57  1  0  0  0  0
 20 21  1  0  0  0  0
 20 58  1  0  0  0  0
 20 59  1  0  0  0  0
 21 22  1  0  0  0  0
 21 60  1  0  0  0  0
 21 61  1  0  0  0  0
 22 23  1  0  0  0  0
 22 62  1  0  0  0  0
 22 63  1  0  0  0  0
 23 24  1  0  0  0  0
 23 64  1  0  0  0  0
 23 65  1  0  0  0  0
 24 25  1  0  0  0  0
 24 66  1  0  0  0  0
 24 67  1  0  0  0  0
 25 26  1  0  0  0  0
 25 68  1  0  0  0  0
 25 69  1  0  0  0  0
 26 27  2  0  0  0  0
 26 70  1  0  0  0  0
 27 28  1  0  0  0  0
 27 71  1  0  0  0  0
 28 29  1  0  0  0  0
 28 72  1  0  0  0  0
 28 73  1  0  0  0  0
 29 30  1  0  0  0  0
 29 74  1  0  0  0  0
 29 75  1  0  0  0  0
 30 31  1  0  0  0  0
 30 76  1  0  0  0  0
 30 77  1  0  0  0  0
 31 32  1  0  0  0  0
 31 78  1  0  0  0  0
 31 79  1  0  0  0  0
 32 33  1  0  0  0  0
 32 80  1  0  0  0  0
 32 81  1  0  0  0  0
 33 34  1  0  0  0  0
 33 82  1  0  0  0  0
 33 83  1  0  0  0  0
 34 35  1  0  0  0  0
 34 84  1  0  0  0  0
 34 85  1  0  0  0  0
 35 86  1  0  0  0  0
 35 87  1  0  0  0  0
 35 88  1  0  0  0  0
M  CHG  1   8  -1
M  END
$$$$