/media/chris/experiments/cd1a-new-docking/inputs/ligands/4x6e_ligand.pdb
 OpenBabel07012320273D

 88 87  0  0  1  0  0  0  0  0999 V2000
  -36.0935   58.6323   61.0923 N   0  0  0  0  0  4  0  0  0  0  0  0
  -38.3428   59.6393   65.0556 C   0  0  1  0  0  0  0  0  0  0  0  0
  -37.0447   59.8758   64.4939 O   0  0  0  0  0  0  0  0  0  0  0  0
  -39.5267   57.2310   62.0470 P   0  0  1  0  0  0  0  0  0  0  0  0
  -39.3051   59.2591   63.9548 C   0  0  0  0  0  0  0  0  0  0  0  0
  -38.8924   58.0499   63.2729 O   0  0  0  0  0  0  0  0  0  0  0  0
  -38.4968   59.1117   60.3077 C   0  0  0  0  0  0  0  0  0  0  0  0
  -41.0408   57.4337   62.0699 O   0  5  0  0  0  0  0  0  0  0  0  0
  -37.3421   59.4875   61.2030 C   0  0  0  0  0  0  0  0  0  0  0  0
  -38.9428   57.7602   60.6034 O   0  0  0  0  0  0  0  0  0  0  0  0
  -35.0455   59.1096   62.0457 C   0  0  0  0  0  0  0  0  0  0  0  0
  -39.2415   55.7923   62.2403 O   0  0  0  0  0  0  0  0  0  0  0  0
  -35.5658   58.7361   59.6990 C   0  0  0  0  0  0  0  0  0  0  0  0
  -39.5828   58.3411   66.7204 O   0  0  0  0  0  0  0  0  0  0  0  0
  -36.4100   57.1962   61.3988 C   0  0  0  0  0  0  0  0  0  0  0  0
  -39.8236   60.0222   68.1929 O   0  0  0  0  0  0  0  0  0  0  0  0
  -38.2787   58.6015   66.1561 C   0  0  0  0  0  0  0  0  0  0  0  0
  -40.2402   59.3661   67.2706 C   0  0  0  0  0  0  0  0  0  0  0  0
  -41.5470   59.5850   66.5720 C   0  0  0  0  0  0  0  0  0  0  0  0
  -42.4780   58.3810   66.6510 C   0  0  0  0  0  0  0  0  0  0  0  0
  -43.8050   58.5690   65.9360 C   0  0  0  0  0  0  0  0  0  0  0  0
  -44.7241   57.3648   66.0412 C   0  0  0  0  0  0  0  0  0  0  0  0
  -44.1117   56.1003   65.4637 C   0  0  0  0  0  0  0  0  0  0  0  0
  -45.0468   54.9156   65.5614 C   0  0  0  0  0  0  0  0  0  0  0  0
  -44.4861   53.6177   65.0163 C   0  0  0  0  0  0  0  0  0  0  0  0
  -44.1065   53.6779   63.5864 C   0  0  0  0  0  0  0  0  0  0  0  0
  -43.1448   52.9873   63.0095 C   0  0  0  0  0  0  0  0  0  0  0  0
  -42.2563   51.9694   63.6475 C   0  0  0  0  0  0  0  0  0  0  0  0
  -40.7936   52.4024   63.5349 C   0  0  0  0  0  0  0  0  0  0  0  0
  -40.4507   53.7224   64.2098 C   0  0  0  0  0  0  0  0  0  0  0  0
  -40.6959   53.7599   65.7134 C   0  0  0  0  0  0  0  0  0  0  0  0
  -40.3573   55.1026   66.3526 C   0  0  0  0  0  0  0  0  0  0  0  0
  -38.9076   55.5214   66.1661 C   0  0  0  0  0  0  0  0  0  0  0  0
  -37.8737   54.5594   66.7321 C   0  0  0  0  0  0  0  0  0  0  0  0
  -37.9420   53.2007   66.1056 C   0  0  0  0  0  0  0  0  0  0  0  0
  -38.7036   60.5369   65.5128 H   0  0  0  0  0  0  0  0  0  0  0  0
  -36.7184   59.0616   64.0797 H   0  0  0  0  0  0  0  0  0  0  0  0
  -39.3521   60.0582   63.2447 H   0  0  0  0  0  0  0  0  0  0  0  0
  -40.2628   59.0808   64.3974 H   0  0  0  0  0  0  0  0  0  0  0  0
  -38.1836   59.1649   59.2859 H   0  0  0  0  0  0  0  0  0  0  0  0
  -39.3058   59.7912   60.4778 H   0  0  0  0  0  0  0  0  0  0  0  0
  -37.0671   60.4956   60.9730 H   0  0  0  0  0  0  0  0  0  0  0  0
  -37.6984   59.3407   62.2012 H   0  0  0  0  0  0  0  0  0  0  0  0
  -34.8121   60.1326   61.8363 H   0  0  0  0  0  0  0  0  0  0  0  0
  -34.1643   58.5128   61.9351 H   0  0  0  0  0  0  0  0  0  0  0  0
  -35.4100   59.0249   63.0481 H   0  0  0  0  0  0  0  0  0  0  0  0
  -39.5949   55.5049   63.0966 H   0  0  0  0  0  0  0  0  0  0  0  0
  -35.3397   59.7584   59.4785 H   0  0  0  0  0  0  0  0  0  0  0  0
  -36.3025   58.3773   59.0109 H   0  0  0  0  0  0  0  0  0  0  0  0
  -34.6772   58.1469   59.6094 H   0  0  0  0  0  0  0  0  0  0  0  0
  -36.7883   57.1195   62.3967 H   0  0  0  0  0  0  0  0  0  0  0  0
  -35.5209   56.6078   61.3082 H   0  0  0  0  0  0  0  0  0  0  0  0
  -37.1462   56.8383   60.7098 H   0  0  0  0  0  0  0  0  0  0  0  0
  -37.6304   58.9560   66.9299 H   0  0  0  0  0  0  0  0  0  0  0  0
  -37.9093   57.6901   65.7344 H   0  0  0  0  0  0  0  0  0  0  0  0
  -41.3508   59.7963   65.5416 H   0  0  0  0  0  0  0  0  0  0  0  0
  -42.0377   60.3996   67.0625 H   0  0  0  0  0  0  0  0  0  0  0  0
  -42.6787   58.1797   67.6825 H   0  0  0  0  0  0  0  0  0  0  0  0
  -41.9769   57.5734   66.1596 H   0  0  0  0  0  0  0  0  0  0  0  0
  -43.6088   58.7562   64.9009 H   0  0  0  0  0  0  0  0  0  0  0  0
  -44.3043   59.3890   66.4084 H   0  0  0  0  0  0  0  0  0  0  0  0
  -45.6287   57.5786   65.5112 H   0  0  0  0  0  0  0  0  0  0  0  0
  -44.9036   57.1882   67.0812 H   0  0  0  0  0  0  0  0  0  0  0  0
  -43.2140   55.8759   66.0011 H   0  0  0  0  0  0  0  0  0  0  0  0
  -43.9119   56.2761   64.4273 H   0  0  0  0  0  0  0  0  0  0  0  0
  -45.9374   55.1485   65.0161 H   0  0  0  0  0  0  0  0  0  0  0  0
  -45.2208   54.7541   66.6047 H   0  0  0  0  0  0  0  0  0  0  0  0
  -45.2270   52.8549   65.1357 H   0  0  0  0  0  0  0  0  0  0  0  0
  -43.5909   53.4129   65.5654 H   0  0  0  0  0  0  0  0  0  0  0  0
  -44.6459   54.3209   62.9859 H   0  0  0  0  0  0  0  0  0  0  0  0
  -42.9874   53.1694   62.0059 H   0  0  0  0  0  0  0  0  0  0  0  0
  -42.3855   51.0285   63.1546 H   0  0  0  0  0  0  0  0  0  0  0  0
  -42.5154   51.8779   64.6816 H   0  0  0  0  0  0  0  0  0  0  0  0
  -40.5545   52.4910   62.4957 H   0  0  0  0  0  0  0  0  0  0  0  0
  -40.2241   51.6536   64.0445 H   0  0  0  0  0  0  0  0  0  0  0  0
  -41.0431   54.4901   63.7577 H   0  0  0  0  0  0  0  0  0  0  0  0
  -39.3985   53.8626   64.0749 H   0  0  0  0  0  0  0  0  0  0  0  0
  -40.0937   53.0045   66.1736 H   0  0  0  0  0  0  0  0  0  0  0  0
  -41.7419   53.5941   65.8656 H   0  0  0  0  0  0  0  0  0  0  0  0
  -40.5576   55.0373   67.4016 H   0  0  0  0  0  0  0  0  0  0  0  0
  -40.9604   55.8407   65.8664 H   0  0  0  0  0  0  0  0  0  0  0  0
  -38.7734   56.4692   66.6442 H   0  0  0  0  0  0  0  0  0  0  0  0
  -38.7408   55.5459   65.1095 H   0  0  0  0  0  0  0  0  0  0  0  0
  -38.0395   54.4595   67.7845 H   0  0  0  0  0  0  0  0  0  0  0  0
  -36.9063   54.9642   66.5198 H   0  0  0  0  0  0  0  0  0  0  0  0
  -38.9003   52.7661   66.2997 H   0  0  0  0  0  0  0  0  0  0  0  0
  -37.1773   52.5778   66.5204 H   0  0  0  0  0  0  0  0  0  0  0  0
  -37.7972   53.2874   65.0490 H   0  0  0  0  0  0  0  0  0  0  0  0
  1  9  1  0  0  0  0
  1 11  1  0  0  0  0
  1 13  1  0  0  0  0
  1 15  1  0  0  0  0
  2  3  1  0  0  0  0
  2  5  1  0  0  0  0
  2 17  1  0  0  0  0
  2 36  1  1  0  0  0
  3 37  1  0  0  0  0
  4  6  1  0  0  0  0
  4  8  2  1  0  0  0
  4 10  1  0  0  0  0
  4 12  1  0  0  0  0
  5  6  1  0  0  0  0
  5 38  1  0  0  0  0
  5 39  1  0  0  0  0
  7  9  1  0  0  0  0
  7 10  1  0  0  0  0
  7 40  1  0  0  0  0
  7 41  1  0  0  0  0
  9 42  1  0  0  0  0
  9 43  1  0  0  0  0
 11 44  1  0  0  0  0
 11 45  1  0  0  0  0
 11 46  1  0  0  0  0
 12 47  1  0  0  0  0
 13 48  1  0  0  0  0
 13 49  1  0  0  0  0
 13 50  1  0  0  0  0
 14 17  1  0  0  0  0
 14 18  1  0  0  0  0
 15 51  1  0  0  0  0
 15 52  1  0  0  0  0
 15 53  1  0  0  0  0
 16 18  2  0  0  0  0
 17 54  1  0  0  0  0
 17 55  1  0  0  0  0
 18 19  1  0  0  0  0
 19 20  1  0  0  0  0
 19 56  1  0  0  0  0
 19 57  1  0  0  0  0
 20 21  1  0  0  0  0
 20 58  1  0  0  0  0
 20 59  1  0  0  0  0
 21 22  1  0  0  0  0
 21 60  1  0  0  0  0
 21 61  1  0  0  0  0
 22 23  1  0  0  0  0
 22 62  1  0  0  0  0
 22 63  1  0  0  0  0
 23 24  1  0  0  0  0
 23 64  1  0  0  0  0
 23 65  1  0  0  0  0
 24 25  1  0  0  0  0
 24 66  1  0  0  0  0
 24 67  1  0  0  0  0
 25 26  1  0  0  0  0
 25 68  1  0  0  0  0
 25 69  1  0  0  0  0
 26 27  2  0  0  0  0
 26 70  1  0  0  0  0
 27 28  1  0  0  0  0
 27 71  1  0  0  0  0
 28 29  1  0  0  0  0
 28 72  1  0  0  0  0
 28 73  1  0  0  0  0
 29 30  1  0  0  0  0
 29 74  1  0  0  0  0
 29 75  1  0  0  0  0
 30 31  1  0  0  0  0
 30 76  1  0  0  0  0
 30 77  1  0  0  0  0
 31 32  1  0  0  0  0
 31 78  1  0  0  0  0
 31 79  1  0  0  0  0
 32 33  1  0  0  0  0
 32 80  1  0  0  0  0
 32 81  1  0  0  0  0
 33 34  1  0  0  0  0
 33 82  1  0  0  0  0
 33 83  1  0  0  0  0
 34 35  1  0  0  0  0
 34 84  1  0  0  0  0
 34 85  1  0  0  0  0
 35 86  1  0  0  0  0
 35 87  1  0  0  0  0
 35 88  1  0  0  0  0
M  CHG  1   8  -1
M  END
$$$$