/media/chris/experiments/cd1a-new-docking/inputs/ligands/4x6e_ligand.pdb
 OpenBabel07012320273D

 88 87  0  0  1  0  0  0  0  0999 V2000
  -42.2824   62.7430   65.1635 N   0  0  0  0  0  4  0  0  0  0  0  0
  -37.5896   59.5918   66.0438 C   0  0  1  0  0  0  0  0  0  0  0  0
  -36.1559   59.6004   66.0687 O   0  0  0  0  0  0  0  0  0  0  0  0
  -37.7940   62.4631   64.3298 P   0  0  1  0  0  0  0  0  0  0  0  0
  -38.0683   59.6980   64.6148 C   0  0  0  0  0  0  0  0  0  0  0  0
  -37.5961   60.9098   63.9777 O   0  0  0  0  0  0  0  0  0  0  0  0
  -39.9938   63.9194   65.1441 C   0  0  0  0  0  0  0  0  0  0  0  0
  -37.0650   63.2892   63.2714 O   0  5  0  0  0  0  0  0  0  0  0  0
  -41.4757   63.9945   64.8708 C   0  0  0  0  0  0  0  0  0  0  0  0
  -39.3842   62.8830   64.3273 O   0  0  0  0  0  0  0  0  0  0  0  0
  -41.7776   61.5928   64.3526 C   0  0  0  0  0  0  0  0  0  0  0  0
  -37.1752   62.7331   65.6460 O   0  0  0  0  0  0  0  0  0  0  0  0
  -43.7093   63.0003   64.8054 C   0  0  0  0  0  0  0  0  0  0  0  0
  -39.5828   58.3411   66.7204 O   0  0  0  0  0  0  0  0  0  0  0  0
  -42.1914   62.3865   66.6199 C   0  0  0  0  0  0  0  0  0  0  0  0
  -39.8236   60.0222   68.1929 O   0  0  0  0  0  0  0  0  0  0  0  0
  -38.1389   58.3714   66.7518 C   0  0  0  0  0  0  0  0  0  0  0  0
  -40.2402   59.3661   67.2706 C   0  0  0  0  0  0  0  0  0  0  0  0
  -41.5470   59.5850   66.5720 C   0  0  0  0  0  0  0  0  0  0  0  0
  -42.4780   58.3810   66.6510 C   0  0  0  0  0  0  0  0  0  0  0  0
  -43.8050   58.5690   65.9360 C   0  0  0  0  0  0  0  0  0  0  0  0
  -44.6170   59.7376   66.4663 C   0  0  0  0  0  0  0  0  0  0  0  0
  -44.9506   59.6053   67.9423 C   0  0  0  0  0  0  0  0  0  0  0  0
  -45.7447   58.3528   68.2393 C   0  0  0  0  0  0  0  0  0  0  0  0
  -46.1237   58.1717   69.6952 C   0  0  0  0  0  0  0  0  0  0  0  0
  -46.8862   56.9328   69.9704 C   0  0  0  0  0  0  0  0  0  0  0  0
  -46.5200   55.9602   70.7795 C   0  0  0  0  0  0  0  0  0  0  0  0
  -45.2889   55.9037   71.6244 C   0  0  0  0  0  0  0  0  0  0  0  0
  -45.5682   56.5048   73.0029 C   0  0  0  0  0  0  0  0  0  0  0  0
  -46.6500   55.8049   73.8124 C   0  0  0  0  0  0  0  0  0  0  0  0
  -46.3680   54.3427   74.1360 C   0  0  0  0  0  0  0  0  0  0  0  0
  -45.1040   54.1348   74.9639 C   0  0  0  0  0  0  0  0  0  0  0  0
  -45.1394   54.8236   76.3189 C   0  0  0  0  0  0  0  0  0  0  0  0
  -46.2517   54.3689   77.2519 C   0  0  0  0  0  0  0  0  0  0  0  0
  -46.1670   52.9117   77.5881 C   0  0  0  0  0  0  0  0  0  0  0  0
  -37.9619   60.4400   66.5795 H   0  0  0  0  0  0  0  0  0  0  0  0
  -35.8195   58.8312   65.5828 H   0  0  0  0  0  0  0  0  0  0  0  0
  -39.1382   59.6970   64.6071 H   0  0  0  0  0  0  0  0  0  0  0  0
  -37.6787   58.8630   64.0709 H   0  0  0  0  0  0  0  0  0  0  0  0
  -39.8362   63.6929   66.1779 H   0  0  0  0  0  0  0  0  0  0  0  0
  -39.5465   64.8612   64.9039 H   0  0  0  0  0  0  0  0  0  0  0  0
  -41.8766   64.7867   65.4679 H   0  0  0  0  0  0  0  0  0  0  0  0
  -41.5616   64.1464   63.8152 H   0  0  0  0  0  0  0  0  0  0  0  0
  -41.8379   61.8361   63.3124 H   0  0  0  0  0  0  0  0  0  0  0  0
  -42.3742   60.7272   64.5517 H   0  0  0  0  0  0  0  0  0  0  0  0
  -40.7595   61.3921   64.6136 H   0  0  0  0  0  0  0  0  0  0  0  0
  -36.2397   62.4777   65.6220 H   0  0  0  0  0  0  0  0  0  0  0  0
  -43.7765   63.2545   63.7682 H   0  0  0  0  0  0  0  0  0  0  0  0
  -44.0849   63.8096   65.3960 H   0  0  0  0  0  0  0  0  0  0  0  0
  -44.2888   62.1211   64.9954 H   0  0  0  0  0  0  0  0  0  0  0  0
  -41.1697   62.2017   66.8787 H   0  0  0  0  0  0  0  0  0  0  0  0
  -42.7718   61.5077   66.8089 H   0  0  0  0  0  0  0  0  0  0  0  0
  -42.5679   63.1961   67.2095 H   0  0  0  0  0  0  0  0  0  0  0  0
  -37.8143   58.3864   67.7713 H   0  0  0  0  0  0  0  0  0  0  0  0
  -37.7756   57.5008   66.2469 H   0  0  0  0  0  0  0  0  0  0  0  0
  -41.3508   59.7963   65.5416 H   0  0  0  0  0  0  0  0  0  0  0  0
  -42.0377   60.3996   67.0625 H   0  0  0  0  0  0  0  0  0  0  0  0
  -42.6787   58.1797   67.6825 H   0  0  0  0  0  0  0  0  0  0  0  0
  -41.9769   57.5734   66.1596 H   0  0  0  0  0  0  0  0  0  0  0  0
  -44.3819   57.6753   66.0516 H   0  0  0  0  0  0  0  0  0  0  0  0
  -43.5836   58.7785   64.9103 H   0  0  0  0  0  0  0  0  0  0  0  0
  -45.5314   59.7964   65.9137 H   0  0  0  0  0  0  0  0  0  0  0  0
  -44.0231   60.6199   66.3495 H   0  0  0  0  0  0  0  0  0  0  0  0
  -45.5246   60.4566   68.2433 H   0  0  0  0  0  0  0  0  0  0  0  0
  -44.0291   59.5456   68.4829 H   0  0  0  0  0  0  0  0  0  0  0  0
  -45.1593   57.5086   67.9402 H   0  0  0  0  0  0  0  0  0  0  0  0
  -46.6631   58.4427   67.6977 H   0  0  0  0  0  0  0  0  0  0  0  0
  -46.7213   59.0076   69.9936 H   0  0  0  0  0  0  0  0  0  0  0  0
  -45.2092   58.1007   70.2461 H   0  0  0  0  0  0  0  0  0  0  0  0
  -47.7888   56.8208   69.4827 H   0  0  0  0  0  0  0  0  0  0  0  0
  -47.1534   55.1473   70.8363 H   0  0  0  0  0  0  0  0  0  0  0  0
  -44.5075   56.4583   71.1483 H   0  0  0  0  0  0  0  0  0  0  0  0
  -44.9918   54.8825   71.7418 H   0  0  0  0  0  0  0  0  0  0  0  0
  -45.8659   57.5233   72.8649 H   0  0  0  0  0  0  0  0  0  0  0  0
  -44.6628   56.3938   73.5621 H   0  0  0  0  0  0  0  0  0  0  0  0
  -47.5631   55.8517   73.2565 H   0  0  0  0  0  0  0  0  0  0  0  0
  -46.6977   56.3151   74.7517 H   0  0  0  0  0  0  0  0  0  0  0  0
  -46.2620   53.8067   73.2160 H   0  0  0  0  0  0  0  0  0  0  0  0
  -47.1895   53.9862   74.7215 H   0  0  0  0  0  0  0  0  0  0  0  0
  -44.2718   54.5187   74.4117 H   0  0  0  0  0  0  0  0  0  0  0  0
  -45.0218   53.0843   75.1497 H   0  0  0  0  0  0  0  0  0  0  0  0
  -45.2565   55.8740   76.1526 H   0  0  0  0  0  0  0  0  0  0  0  0
  -44.2220   54.5655   76.8054 H   0  0  0  0  0  0  0  0  0  0  0  0
  -47.1929   54.5566   76.7790 H   0  0  0  0  0  0  0  0  0  0  0  0
  -46.1506   54.9170   78.1653 H   0  0  0  0  0  0  0  0  0  0  0  0
  -46.2648   52.3330   76.6934 H   0  0  0  0  0  0  0  0  0  0  0  0
  -46.9540   52.6558   78.2663 H   0  0  0  0  0  0  0  0  0  0  0  0
  -45.2215   52.7055   78.0448 H   0  0  0  0  0  0  0  0  0  0  0  0
  1  9  1  0  0  0  0
  1 11  1  0  0  0  0
  1 13  1  0  0  0  0
  1 15  1  0  0  0  0
  2  3  1  0  0  0  0
  2  5  1  0  0  0  0
  2 17  1  0  0  0  0
  2 36  1  1  0  0  0
  3 37  1  0  0  0  0
  4  6  1  0  0  0  0
  4  8  2  6  0  0  0
  4 10  1  0  0  0  0
  4 12  1  0  0  0  0
  5  6  1  0  0  0  0
  5 38  1  0  0  0  0
  5 39  1  0  0  0  0
  7  9  1  0  0  0  0
  7 10  1  0  0  0  0
  7 40  1  0  0  0  0
  7 41  1  0  0  0  0
  9 42  1  0  0  0  0
  9 43  1  0  0  0  0
 11 44  1  0  0  0  0
 11 45  1  0  0  0  0
 11 46  1  0  0  0  0
 12 47  1  0  0  0  0
 13 48  1  0  0  0  0
 13 49  1  0  0  0  0
 13 50  1  0  0  0  0
 14 17  1  0  0  0  0
 14 18  1  0  0  0  0
 15 51  1  0  0  0  0
 15 52  1  0  0  0  0
 15 53  1  0  0  0  0
 16 18  2  0  0  0  0
 17 54  1  0  0  0  0
 17 55  1  0  0  0  0
 18 19  1  0  0  0  0
 19 20  1  0  0  0  0
 19 56  1  0  0  0  0
 19 57  1  0  0  0  0
 20 21  1  0  0  0  0
 20 58  1  0  0  0  0
 20 59  1  0  0  0  0
 21 22  1  0  0  0  0
 21 60  1  0  0  0  0
 21 61  1  0  0  0  0
 22 23  1  0  0  0  0
 22 62  1  0  0  0  0
 22 63  1  0  0  0  0
 23 24  1  0  0  0  0
 23 64  1  0  0  0  0
 23 65  1  0  0  0  0
 24 25  1  0  0  0  0
 24 66  1  0  0  0  0
 24 67  1  0  0  0  0
 25 26  1  0  0  0  0
 25 68  1  0  0  0  0
 25 69  1  0  0  0  0
 26 27  2  0  0  0  0
 26 70  1  0  0  0  0
 27 28  1  0  0  0  0
 27 71  1  0  0  0  0
 28 29  1  0  0  0  0
 28 72  1  0  0  0  0
 28 73  1  0  0  0  0
 29 30  1  0  0  0  0
 29 74  1  0  0  0  0
 29 75  1  0  0  0  0
 30 31  1  0  0  0  0
 30 76  1  0  0  0  0
 30 77  1  0  0  0  0
 31 32  1  0  0  0  0
 31 78  1  0  0  0  0
 31 79  1  0  0  0  0
 32 33  1  0  0  0  0
 32 80  1  0  0  0  0
 32 81  1  0  0  0  0
 33 34  1  0  0  0  0
 33 82  1  0  0  0  0
 33 83  1  0  0  0  0
 34 35  1  0  0  0  0
 34 84  1  0  0  0  0
 34 85  1  0  0  0  0
 35 86  1  0  0  0  0
 35 87  1  0  0  0  0
 35 88  1  0  0  0  0
M  CHG  1   8  -1
M  END
$$$$