/media/chris/experiments/cd1a-new-docking/inputs/ligands/4x6e_ligand.pdb
 OpenBabel07012320273D

 88 87  0  0  1  0  0  0  0  0999 V2000
  -38.2423   53.8197   56.5884 N   0  0  0  0  0  4  0  0  0  0  0  0
  -40.8185   59.2353   62.3420 C   0  0  1  0  0  0  0  0  0  0  0  0
  -39.6117   59.5966   63.0272 O   0  0  0  0  0  0  0  0  0  0  0  0
  -39.5323   55.5177   61.4596 P   0  0  1  0  0  0  0  0  0  0  0  0
  -40.9762   57.7329   62.3598 C   0  0  0  0  0  0  0  0  0  0  0  0
  -39.8588   57.0668   61.7233 O   0  0  0  0  0  0  0  0  0  0  0  0
  -39.0487   54.5367   58.9245 C   0  0  0  0  0  0  0  0  0  0  0  0
  -40.8559   54.7695   61.3102 O   0  5  0  0  0  0  0  0  0  0  0  0
  -37.9655   54.5751   57.8750 C   0  0  0  0  0  0  0  0  0  0  0  0
  -38.6502   55.3137   60.0865 O   0  0  0  0  0  0  0  0  0  0  0  0
  -39.4518   54.3731   55.9058 C   0  0  0  0  0  0  0  0  0  0  0  0
  -38.8166   54.9774   62.6361 O   0  0  0  0  0  0  0  0  0  0  0  0
  -38.4865   52.3843   56.9207 C   0  0  0  0  0  0  0  0  0  0  0  0
  -42.1851   59.6432   64.3322 O   0  0  0  0  0  0  0  0  0  0  0  0
  -37.0696   53.9218   55.6552 C   0  0  0  0  0  0  0  0  0  0  0  0
  -40.1645   60.4953   64.8259 O   0  0  0  0  0  0  0  0  0  0  0  0
  -42.0146   59.9524   62.9314 C   0  0  0  0  0  0  0  0  0  0  0  0
  -41.1924   59.9644   65.1670 C   0  0  0  0  0  0  0  0  0  0  0  0
  -41.5470   59.5850   66.5720 C   0  0  0  0  0  0  0  0  0  0  0  0
  -42.4780   58.3810   66.6510 C   0  0  0  0  0  0  0  0  0  0  0  0
  -43.8050   58.5690   65.9360 C   0  0  0  0  0  0  0  0  0  0  0  0
  -44.7241   57.3648   66.0412 C   0  0  0  0  0  0  0  0  0  0  0  0
  -46.0403   57.5587   65.3081 C   0  0  0  0  0  0  0  0  0  0  0  0
  -45.8412   57.7918   63.8270 C   0  0  0  0  0  0  0  0  0  0  0  0
  -47.1183   58.0095   63.0412 C   0  0  0  0  0  0  0  0  0  0  0  0
  -46.9060   58.2196   61.5910 C   0  0  0  0  0  0  0  0  0  0  0  0
  -47.6617   58.9460   60.7936 C   0  0  0  0  0  0  0  0  0  0  0  0
  -48.8654   59.7463   61.1720 C   0  0  0  0  0  0  0  0  0  0  0  0
  -50.0923   59.2456   60.4080 C   0  0  0  0  0  0  0  0  0  0  0  0
  -51.3872   59.9925   60.6925 C   0  0  0  0  0  0  0  0  0  0  0  0
  -51.8357   59.9726   62.1487 C   0  0  0  0  0  0  0  0  0  0  0  0
  -52.0680   58.5679   62.6955 C   0  0  0  0  0  0  0  0  0  0  0  0
  -52.5321   58.5433   64.1432 C   0  0  0  0  0  0  0  0  0  0  0  0
  -51.5834   59.1881   65.1425 C   0  0  0  0  0  0  0  0  0  0  0  0
  -51.3461   60.6403   64.8626 C   0  0  0  0  0  0  0  0  0  0  0  0
  -40.7572   59.5477   61.3204 H   0  0  0  0  0  0  0  0  0  0  0  0
  -39.6683   59.3130   63.9530 H   0  0  0  0  0  0  0  0  0  0  0  0
  -41.8753   57.4729   61.8414 H   0  0  0  0  0  0  0  0  0  0  0  0
  -41.0149   57.4149   63.3808 H   0  0  0  0  0  0  0  0  0  0  0  0
  -39.2193   53.5223   59.2192 H   0  0  0  0  0  0  0  0  0  0  0  0
  -39.9452   54.9543   58.5161 H   0  0  0  0  0  0  0  0  0  0  0  0
  -37.7962   55.6004   57.6200 H   0  0  0  0  0  0  0  0  0  0  0  0
  -37.1250   54.0826   58.3174 H   0  0  0  0  0  0  0  0  0  0  0  0
  -40.2941   54.3054   56.5622 H   0  0  0  0  0  0  0  0  0  0  0  0
  -39.6471   53.8121   55.0158 H   0  0  0  0  0  0  0  0  0  0  0  0
  -39.2799   55.3980   55.6508 H   0  0  0  0  0  0  0  0  0  0  0  0
  -39.3560   55.1094   63.4314 H   0  0  0  0  0  0  0  0  0  0  0  0
  -39.3216   52.3092   57.5855 H   0  0  0  0  0  0  0  0  0  0  0  0
  -37.6176   51.9744   57.3918 H   0  0  0  0  0  0  0  0  0  0  0  0
  -38.6954   51.8409   56.0229 H   0  0  0  0  0  0  0  0  0  0  0  0
  -36.8928   54.9495   55.4157 H   0  0  0  0  0  0  0  0  0  0  0  0
  -37.2792   53.3775   54.7581 H   0  0  0  0  0  0  0  0  0  0  0  0
  -36.2015   53.5110   56.1270 H   0  0  0  0  0  0  0  0  0  0  0  0
  -42.8943   59.6538   62.4006 H   0  0  0  0  0  0  0  0  0  0  0  0
  -41.8509   61.0058   62.8396 H   0  0  0  0  0  0  0  0  0  0  0  0
  -42.0288   60.4189   67.0383 H   0  0  0  0  0  0  0  0  0  0  0  0
  -40.6378   59.3175   67.0687 H   0  0  0  0  0  0  0  0  0  0  0  0
  -42.6787   58.1797   67.6825 H   0  0  0  0  0  0  0  0  0  0  0  0
  -41.9769   57.5734   66.1596 H   0  0  0  0  0  0  0  0  0  0  0  0
  -43.6088   58.7562   64.9009 H   0  0  0  0  0  0  0  0  0  0  0  0
  -44.3043   59.3890   66.4084 H   0  0  0  0  0  0  0  0  0  0  0  0
  -44.9328   57.1840   67.0750 H   0  0  0  0  0  0  0  0  0  0  0  0
  -44.2219   56.5372   65.5852 H   0  0  0  0  0  0  0  0  0  0  0  0
  -46.5454   58.4048   65.7250 H   0  0  0  0  0  0  0  0  0  0  0  0
  -46.6160   56.6644   65.4251 H   0  0  0  0  0  0  0  0  0  0  0  0
  -45.3412   56.9379   63.4198 H   0  0  0  0  0  0  0  0  0  0  0  0
  -45.2745   58.6950   63.7374 H   0  0  0  0  0  0  0  0  0  0  0  0
  -47.6138   58.8714   63.4368 H   0  0  0  0  0  0  0  0  0  0  0  0
  -47.6995   57.1168   63.1424 H   0  0  0  0  0  0  0  0  0  0  0  0
  -46.0896   57.7533   61.1653 H   0  0  0  0  0  0  0  0  0  0  0  0
  -47.3928   58.9645   59.7975 H   0  0  0  0  0  0  0  0  0  0  0  0
  -48.6955   60.7754   60.9329 H   0  0  0  0  0  0  0  0  0  0  0  0
  -49.0401   59.6402   62.2223 H   0  0  0  0  0  0  0  0  0  0  0  0
  -50.2419   58.2169   60.6614 H   0  0  0  0  0  0  0  0  0  0  0  0
  -49.8804   59.4064   59.3716 H   0  0  0  0  0  0  0  0  0  0  0  0
  -52.1617   59.5512   60.1006 H   0  0  0  0  0  0  0  0  0  0  0  0
  -51.2000   61.0180   60.4513 H   0  0  0  0  0  0  0  0  0  0  0  0
  -52.7501   60.5226   62.2289 H   0  0  0  0  0  0  0  0  0  0  0  0
  -51.0475   60.4085   62.7264 H   0  0  0  0  0  0  0  0  0  0  0  0
  -51.1501   58.0225   62.6259 H   0  0  0  0  0  0  0  0  0  0  0  0
  -52.8492   58.1301   62.1098 H   0  0  0  0  0  0  0  0  0  0  0  0
  -52.6682   57.5212   64.4291 H   0  0  0  0  0  0  0  0  0  0  0  0
  -53.4319   59.1215   64.1747 H   0  0  0  0  0  0  0  0  0  0  0  0
  -50.6454   58.6747   65.1040 H   0  0  0  0  0  0  0  0  0  0  0  0
  -52.0357   59.1158   66.1095 H   0  0  0  0  0  0  0  0  0  0  0  0
  -50.8929   60.7485   63.8993 H   0  0  0  0  0  0  0  0  0  0  0  0
  -50.6967   61.0461   65.6099 H   0  0  0  0  0  0  0  0  0  0  0  0
  -52.2792   61.1638   64.8785 H   0  0  0  0  0  0  0  0  0  0  0  0
  1  9  1  0  0  0  0
  1 11  1  0  0  0  0
  1 13  1  0  0  0  0
  1 15  1  0  0  0  0
  2  3  1  0  0  0  0
  2  5  1  0  0  0  0
  2 17  1  0  0  0  0
  2 36  1  6  0  0  0
  3 37  1  0  0  0  0
  4  6  1  0  0  0  0
  4  8  2  6  0  0  0
  4 10  1  0  0  0  0
  4 12  1  0  0  0  0
  5  6  1  0  0  0  0
  5 38  1  0  0  0  0
  5 39  1  0  0  0  0
  7  9  1  0  0  0  0
  7 10  1  0  0  0  0
  7 40  1  0  0  0  0
  7 41  1  0  0  0  0
  9 42  1  0  0  0  0
  9 43  1  0  0  0  0
 11 44  1  0  0  0  0
 11 45  1  0  0  0  0
 11 46  1  0  0  0  0
 12 47  1  0  0  0  0
 13 48  1  0  0  0  0
 13 49  1  0  0  0  0
 13 50  1  0  0  0  0
 14 17  1  0  0  0  0
 14 18  1  0  0  0  0
 15 51  1  0  0  0  0
 15 52  1  0  0  0  0
 15 53  1  0  0  0  0
 16 18  2  0  0  0  0
 17 54  1  0  0  0  0
 17 55  1  0  0  0  0
 18 19  1  0  0  0  0
 19 20  1  0  0  0  0
 19 56  1  0  0  0  0
 19 57  1  0  0  0  0
 20 21  1  0  0  0  0
 20 58  1  0  0  0  0
 20 59  1  0  0  0  0
 21 22  1  0  0  0  0
 21 60  1  0  0  0  0
 21 61  1  0  0  0  0
 22 23  1  0  0  0  0
 22 62  1  0  0  0  0
 22 63  1  0  0  0  0
 23 24  1  0  0  0  0
 23 64  1  0  0  0  0
 23 65  1  0  0  0  0
 24 25  1  0  0  0  0
 24 66  1  0  0  0  0
 24 67  1  0  0  0  0
 25 26  1  0  0  0  0
 25 68  1  0  0  0  0
 25 69  1  0  0  0  0
 26 27  2  0  0  0  0
 26 70  1  0  0  0  0
 27 28  1  0  0  0  0
 27 71  1  0  0  0  0
 28 29  1  0  0  0  0
 28 72  1  0  0  0  0
 28 73  1  0  0  0  0
 29 30  1  0  0  0  0
 29 74  1  0  0  0  0
 29 75  1  0  0  0  0
 30 31  1  0  0  0  0
 30 76  1  0  0  0  0
 30 77  1  0  0  0  0
 31 32  1  0  0  0  0
 31 78  1  0  0  0  0
 31 79  1  0  0  0  0
 32 33  1  0  0  0  0
 32 80  1  0  0  0  0
 32 81  1  0  0  0  0
 33 34  1  0  0  0  0
 33 82  1  0  0  0  0
 33 83  1  0  0  0  0
 34 35  1  0  0  0  0
 34 84  1  0  0  0  0
 34 85  1  0  0  0  0
 35 86  1  0  0  0  0
 35 87  1  0  0  0  0
 35 88  1  0  0  0  0
M  CHG  1   8  -1
M  END
$$$$