/media/chris/experiments/cd1a-new-docking/inputs/ligands/4x6e_ligand.pdb
 OpenBabel07012320273D

 88 87  0  0  1  0  0  0  0  0999 V2000
  -46.0406   71.0860   65.6306 N   0  0  0  0  0  4  0  0  0  0  0  0
  -42.4451   63.8547   67.8386 C   0  0  1  0  0  0  0  0  0  0  0  0
  -42.4666   64.8789   68.8421 O   0  0  0  0  0  0  0  0  0  0  0  0
  -43.9028   66.2644   64.9538 P   0  0  1  0  0  0  0  0  0  0  0  0
  -42.3668   64.4923   66.4712 C   0  0  0  0  0  0  0  0  0  0  0  0
  -43.4917   65.3695   66.2211 O   0  0  0  0  0  0  0  0  0  0  0  0
  -45.1948   68.6884   65.2334 C   0  0  0  0  0  0  0  0  0  0  0  0
  -45.2672   65.7896   64.4565 O   0  5  0  0  0  0  0  0  0  0  0  0
  -44.8905   70.0973   65.6791 C   0  0  0  0  0  0  0  0  0  0  0  0
  -44.0081   67.8571   65.3503 O   0  0  0  0  0  0  0  0  0  0  0  0
  -46.5698   71.2060   64.2375 C   0  0  0  0  0  0  0  0  0  0  0  0
  -42.9093   66.0489   63.8792 O   0  0  0  0  0  0  0  0  0  0  0  0
  -45.5416   72.4209   66.0771 C   0  0  0  0  0  0  0  0  0  0  0  0
  -41.2761   61.8437   67.0743 O   0  0  0  0  0  0  0  0  0  0  0  0
  -47.1545   70.6429   66.5359 C   0  0  0  0  0  0  0  0  0  0  0  0
  -43.2158   60.8980   67.7033 O   0  0  0  0  0  0  0  0  0  0  0  0
  -41.3201   62.8725   68.0874 C   0  0  0  0  0  0  0  0  0  0  0  0
  -42.1287   60.8209   67.1868 C   0  0  0  0  0  0  0  0  0  0  0  0
  -41.5470   59.5850   66.5720 C   0  0  0  0  0  0  0  0  0  0  0  0
  -42.4780   58.3810   66.6510 C   0  0  0  0  0  0  0  0  0  0  0  0
  -43.8050   58.5690   65.9360 C   0  0  0  0  0  0  0  0  0  0  0  0
  -43.6578   58.8291   64.4471 C   0  0  0  0  0  0  0  0  0  0  0  0
  -42.8367   60.0699   64.1412 C   0  0  0  0  0  0  0  0  0  0  0  0
  -42.7147   60.3231   62.6551 C   0  0  0  0  0  0  0  0  0  0  0  0
  -41.8915   61.5399   62.2839 C   0  0  0  0  0  0  0  0  0  0  0  0
  -41.7964   61.7820   60.8263 C   0  0  0  0  0  0  0  0  0  0  0  0
  -42.6175   62.5192   60.1072 C   0  0  0  0  0  0  0  0  0  0  0  0
  -43.7921   63.3020   60.5971 C   0  0  0  0  0  0  0  0  0  0  0  0
  -45.0728   62.8080   59.9222 C   0  0  0  0  0  0  0  0  0  0  0  0
  -45.4219   61.3487   60.1753 C   0  0  0  0  0  0  0  0  0  0  0  0
  -44.3663   60.3462   59.7246 C   0  0  0  0  0  0  0  0  0  0  0  0
  -44.0542   60.4191   58.2335 C   0  0  0  0  0  0  0  0  0  0  0  0
  -43.0138   59.4093   57.7756 C   0  0  0  0  0  0  0  0  0  0  0  0
  -42.6623   59.4614   56.2963 C   0  0  0  0  0  0  0  0  0  0  0  0
  -42.0916   60.7829   55.8823 C   0  0  0  0  0  0  0  0  0  0  0  0
  -43.3515   63.2881   67.8861 H   0  0  0  0  0  0  0  0  0  0  0  0
  -41.6446   65.3919   68.7981 H   0  0  0  0  0  0  0  0  0  0  0  0
  -42.3575   63.7211   65.7295 H   0  0  0  0  0  0  0  0  0  0  0  0
  -41.4725   65.0782   66.4284 H   0  0  0  0  0  0  0  0  0  0  0  0
  -45.5173   68.7024   64.2132 H   0  0  0  0  0  0  0  0  0  0  0  0
  -45.9663   68.2846   65.8551 H   0  0  0  0  0  0  0  0  0  0  0  0
  -44.5443   70.0506   66.6905 H   0  0  0  0  0  0  0  0  0  0  0  0
  -44.1701   70.4663   64.9794 H   0  0  0  0  0  0  0  0  0  0  0  0
  -45.7840   71.5215   63.5834 H   0  0  0  0  0  0  0  0  0  0  0  0
  -47.3611   71.9260   64.2174 H   0  0  0  0  0  0  0  0  0  0  0  0
  -46.9431   70.2566   63.9147 H   0  0  0  0  0  0  0  0  0  0  0  0
  -42.8658   65.1041   63.6638 H   0  0  0  0  0  0  0  0  0  0  0  0
  -44.7480   72.7386   65.4336 H   0  0  0  0  0  0  0  0  0  0  0  0
  -45.1793   72.3486   67.0813 H   0  0  0  0  0  0  0  0  0  0  0  0
  -46.3401   73.1320   66.0364 H   0  0  0  0  0  0  0  0  0  0  0  0
  -47.5135   69.6865   66.2178 H   0  0  0  0  0  0  0  0  0  0  0  0
  -47.9520   71.3550   66.4949 H   0  0  0  0  0  0  0  0  0  0  0  0
  -46.7912   70.5716   67.5398 H   0  0  0  0  0  0  0  0  0  0  0  0
  -41.4659   62.4128   69.0425 H   0  0  0  0  0  0  0  0  0  0  0  0
  -40.3952   63.4098   68.0580 H   0  0  0  0  0  0  0  0  0  0  0  0
  -40.6379   59.3462   67.0832 H   0  0  0  0  0  0  0  0  0  0  0  0
  -41.3821   59.7924   65.5353 H   0  0  0  0  0  0  0  0  0  0  0  0
  -42.6787   58.1797   67.6825 H   0  0  0  0  0  0  0  0  0  0  0  0
  -41.9769   57.5734   66.1596 H   0  0  0  0  0  0  0  0  0  0  0  0
  -44.3126   59.4014   66.3769 H   0  0  0  0  0  0  0  0  0  0  0  0
  -44.3534   57.6566   66.0440 H   0  0  0  0  0  0  0  0  0  0  0  0
  -44.6329   58.9523   64.0242 H   0  0  0  0  0  0  0  0  0  0  0  0
  -43.1429   57.9916   64.0247 H   0  0  0  0  0  0  0  0  0  0  0  0
  -41.8563   59.9438   64.5508 H   0  0  0  0  0  0  0  0  0  0  0  0
  -43.3362   60.9097   64.5773 H   0  0  0  0  0  0  0  0  0  0  0  0
  -43.6996   60.4535   62.2576 H   0  0  0  0  0  0  0  0  0  0  0  0
  -42.2033   59.4769   62.2461 H   0  0  0  0  0  0  0  0  0  0  0  0
  -40.9018   61.4062   62.6678 H   0  0  0  0  0  0  0  0  0  0  0  0
  -42.3868   62.3889   62.7066 H   0  0  0  0  0  0  0  0  0  0  0  0
  -41.0137   61.3311   60.3272 H   0  0  0  0  0  0  0  0  0  0  0  0
  -42.4287   62.5607   59.0935 H   0  0  0  0  0  0  0  0  0  0  0  0
  -43.6480   64.3371   60.3675 H   0  0  0  0  0  0  0  0  0  0  0  0
  -43.8821   63.1725   61.6554 H   0  0  0  0  0  0  0  0  0  0  0  0
  -44.9629   62.9429   58.8664 H   0  0  0  0  0  0  0  0  0  0  0  0
  -45.8703   63.3803   60.3478 H   0  0  0  0  0  0  0  0  0  0  0  0
  -46.3309   61.1299   59.6550 H   0  0  0  0  0  0  0  0  0  0  0  0
  -45.5032   61.2405   61.2367 H   0  0  0  0  0  0  0  0  0  0  0  0
  -44.7176   59.3608   59.9492 H   0  0  0  0  0  0  0  0  0  0  0  0
  -43.4633   60.5844   60.2469 H   0  0  0  0  0  0  0  0  0  0  0  0
  -43.6918   61.4012   58.0121 H   0  0  0  0  0  0  0  0  0  0  0  0
  -44.9609   60.1909   57.7132 H   0  0  0  0  0  0  0  0  0  0  0  0
  -43.3862   58.4299   57.9923 H   0  0  0  0  0  0  0  0  0  0  0  0
  -42.1144   59.6529   58.3016 H   0  0  0  0  0  0  0  0  0  0  0  0
  -43.5498   59.2788   55.7273 H   0  0  0  0  0  0  0  0  0  0  0  0
  -41.9153   58.7168   56.1160 H   0  0  0  0  0  0  0  0  0  0  0  0
  -42.8158   61.5525   56.0502 H   0  0  0  0  0  0  0  0  0  0  0  0
  -41.8382   60.7522   54.8432 H   0  0  0  0  0  0  0  0  0  0  0  0
  -41.2132   60.9881   56.4578 H   0  0  0  0  0  0  0  0  0  0  0  0
  1  9  1  0  0  0  0
  1 11  1  0  0  0  0
  1 13  1  0  0  0  0
  1 15  1  0  0  0  0
  2  3  1  0  0  0  0
  2  5  1  0  0  0  0
  2 17  1  0  0  0  0
  2 36  1  1  0  0  0
  3 37  1  0  0  0  0
  4  6  1  0  0  0  0
  4  8  2  6  0  0  0
  4 10  1  0  0  0  0
  4 12  1  0  0  0  0
  5  6  1  0  0  0  0
  5 38  1  0  0  0  0
  5 39  1  0  0  0  0
  7  9  1  0  0  0  0
  7 10  1  0  0  0  0
  7 40  1  0  0  0  0
  7 41  1  0  0  0  0
  9 42  1  0  0  0  0
  9 43  1  0  0  0  0
 11 44  1  0  0  0  0
 11 45  1  0  0  0  0
 11 46  1  0  0  0  0
 12 47  1  0  0  0  0
 13 48  1  0  0  0  0
 13 49  1  0  0  0  0
 13 50  1  0  0  0  0
 14 17  1  0  0  0  0
 14 18  1  0  0  0  0
 15 51  1  0  0  0  0
 15 52  1  0  0  0  0
 15 53  1  0  0  0  0
 16 18  2  0  0  0  0
 17 54  1  0  0  0  0
 17 55  1  0  0  0  0
 18 19  1  0  0  0  0
 19 20  1  0  0  0  0
 19 56  1  0  0  0  0
 19 57  1  0  0  0  0
 20 21  1  0  0  0  0
 20 58  1  0  0  0  0
 20 59  1  0  0  0  0
 21 22  1  0  0  0  0
 21 60  1  0  0  0  0
 21 61  1  0  0  0  0
 22 23  1  0  0  0  0
 22 62  1  0  0  0  0
 22 63  1  0  0  0  0
 23 24  1  0  0  0  0
 23 64  1  0  0  0  0
 23 65  1  0  0  0  0
 24 25  1  0  0  0  0
 24 66  1  0  0  0  0
 24 67  1  0  0  0  0
 25 26  1  0  0  0  0
 25 68  1  0  0  0  0
 25 69  1  0  0  0  0
 26 27  2  0  0  0  0
 26 70  1  0  0  0  0
 27 28  1  0  0  0  0
 27 71  1  0  0  0  0
 28 29  1  0  0  0  0
 28 72  1  0  0  0  0
 28 73  1  0  0  0  0
 29 30  1  0  0  0  0
 29 74  1  0  0  0  0
 29 75  1  0  0  0  0
 30 31  1  0  0  0  0
 30 76  1  0  0  0  0
 30 77  1  0  0  0  0
 31 32  1  0  0  0  0
 31 78  1  0  0  0  0
 31 79  1  0  0  0  0
 32 33  1  0  0  0  0
 32 80  1  0  0  0  0
 32 81  1  0  0  0  0
 33 34  1  0  0  0  0
 33 82  1  0  0  0  0
 33 83  1  0  0  0  0
 34 35  1  0  0  0  0
 34 84  1  0  0  0  0
 34 85  1  0  0  0  0
 35 86  1  0  0  0  0
 35 87  1  0  0  0  0
 35 88  1  0  0  0  0
M  CHG  1   8  -1
M  END
$$$$