/media/chris/experiments/cd1a-new-docking/inputs/ligands/4x6e_ligand.pdb
 OpenBabel07012320273D

 88 87  0  0  1  0  0  0  0  0999 V2000
  -39.7743   64.9576   70.5208 N   0  0  0  0  0  4  0  0  0  0  0  0
  -39.2605   61.0236   63.2181 C   0  0  1  0  0  0  0  0  0  0  0  0
  -40.4020   61.8629   63.4397 O   0  0  0  0  0  0  0  0  0  0  0  0
  -37.6366   61.7830   66.8292 P   0  0  1  0  0  0  0  0  0  0  0  0
  -38.1195   61.4853   64.0941 C   0  0  0  0  0  0  0  0  0  0  0  0
  -38.4563   61.4100   65.5007 O   0  0  0  0  0  0  0  0  0  0  0  0
  -38.6060   63.5784   68.6893 C   0  0  0  0  0  0  0  0  0  0  0  0
  -36.6708   62.9176   66.4915 O   0  5  0  0  0  0  0  0  0  0  0  0
  -39.6709   63.6514   69.7555 C   0  0  0  0  0  0  0  0  0  0  0  0
  -38.6384   62.2809   68.0347 O   0  0  0  0  0  0  0  0  0  0  0  0
  -38.4848   65.2626   71.2131 C   0  0  0  0  0  0  0  0  0  0  0  0
  -36.8485   60.6028   67.2466 O   0  0  0  0  0  0  0  0  0  0  0  0
  -40.8552   64.8276   71.5431 C   0  0  0  0  0  0  0  0  0  0  0  0
  -40.0862   59.3247   64.7759 O   0  0  0  0  0  0  0  0  0  0  0  0
  -40.1039   66.0890   69.5892 C   0  0  0  0  0  0  0  0  0  0  0  0
  -41.8149   60.7290   64.4724 O   0  0  0  0  0  0  0  0  0  0  0  0
  -39.6067   59.5657   63.4347 C   0  0  0  0  0  0  0  0  0  0  0  0
  -41.1924   59.9644   65.1670 C   0  0  0  0  0  0  0  0  0  0  0  0
  -41.5470   59.5850   66.5720 C   0  0  0  0  0  0  0  0  0  0  0  0
  -42.4780   58.3810   66.6510 C   0  0  0  0  0  0  0  0  0  0  0  0
  -43.8050   58.5690   65.9360 C   0  0  0  0  0  0  0  0  0  0  0  0
  -44.7241   57.3648   66.0412 C   0  0  0  0  0  0  0  0  0  0  0  0
  -45.0954   57.0268   67.4749 C   0  0  0  0  0  0  0  0  0  0  0  0
  -45.8277   58.1599   68.1584 C   0  0  0  0  0  0  0  0  0  0  0  0
  -46.2114   57.8902   69.5993 C   0  0  0  0  0  0  0  0  0  0  0  0
  -46.9418   59.0031   70.2475 C   0  0  0  0  0  0  0  0  0  0  0  0
  -46.8144   60.2832   69.9650 C   0  0  0  0  0  0  0  0  0  0  0  0
  -45.9470   60.8938   68.9127 C   0  0  0  0  0  0  0  0  0  0  0  0
  -44.9387   61.8505   69.5512 C   0  0  0  0  0  0  0  0  0  0  0  0
  -43.9818   61.2174   70.5507 C   0  0  0  0  0  0  0  0  0  0  0  0
  -44.6491   60.5461   71.7451 C   0  0  0  0  0  0  0  0  0  0  0  0
  -45.5084   61.4942   72.5751 C   0  0  0  0  0  0  0  0  0  0  0  0
  -46.1629   60.8331   73.7778 C   0  0  0  0  0  0  0  0  0  0  0  0
  -47.0847   59.6659   73.4581 C   0  0  0  0  0  0  0  0  0  0  0  0
  -46.3774   58.5411   72.7666 C   0  0  0  0  0  0  0  0  0  0  0  0
  -38.9474   61.1074   62.1984 H   0  0  0  0  0  0  0  0  0  0  0  0
  -40.6850   61.7862   64.3643 H   0  0  0  0  0  0  0  0  0  0  0  0
  -37.8829   62.4995   63.8485 H   0  0  0  0  0  0  0  0  0  0  0  0
  -37.2834   60.8415   63.9176 H   0  0  0  0  0  0  0  0  0  0  0  0
  -37.6458   63.7237   69.1384 H   0  0  0  0  0  0  0  0  0  0  0  0
  -38.7882   64.3411   67.9613 H   0  0  0  0  0  0  0  0  0  0  0  0
  -40.6153   63.4750   69.2843 H   0  0  0  0  0  0  0  0  0  0  0  0
  -39.3935   62.9178   70.4834 H   0  0  0  0  0  0  0  0  0  0  0  0
  -38.2400   64.4624   71.8799 H   0  0  0  0  0  0  0  0  0  0  0  0
  -38.5844   66.1718   71.7684 H   0  0  0  0  0  0  0  0  0  0  0  0
  -37.7070   65.3719   70.4864 H   0  0  0  0  0  0  0  0  0  0  0  0
  -36.2668   60.3290   66.5202 H   0  0  0  0  0  0  0  0  0  0  0  0
  -40.6225   64.0221   72.2078 H   0  0  0  0  0  0  0  0  0  0  0  0
  -41.7862   64.6291   71.0545 H   0  0  0  0  0  0  0  0  0  0  0  0
  -40.9314   65.7385   72.0994 H   0  0  0  0  0  0  0  0  0  0  0  0
  -39.3306   66.1840   68.8558 H   0  0  0  0  0  0  0  0  0  0  0  0
  -40.1806   66.9991   70.1466 H   0  0  0  0  0  0  0  0  0  0  0  0
  -41.0354   65.8898   69.1017 H   0  0  0  0  0  0  0  0  0  0  0  0
  -38.7318   58.9728   63.2674 H   0  0  0  0  0  0  0  0  0  0  0  0
  -40.3850   59.3020   62.7495 H   0  0  0  0  0  0  0  0  0  0  0  0
  -42.0288   60.4189   67.0383 H   0  0  0  0  0  0  0  0  0  0  0  0
  -40.6378   59.3175   67.0687 H   0  0  0  0  0  0  0  0  0  0  0  0
  -42.6787   58.1797   67.6825 H   0  0  0  0  0  0  0  0  0  0  0  0
  -41.9769   57.5734   66.1596 H   0  0  0  0  0  0  0  0  0  0  0  0
  -43.6088   58.7562   64.9009 H   0  0  0  0  0  0  0  0  0  0  0  0
  -44.3043   59.3890   66.4084 H   0  0  0  0  0  0  0  0  0  0  0  0
  -44.2305   56.5199   65.6083 H   0  0  0  0  0  0  0  0  0  0  0  0
  -45.6292   57.6059   65.5239 H   0  0  0  0  0  0  0  0  0  0  0  0
  -44.2003   56.8156   68.0218 H   0  0  0  0  0  0  0  0  0  0  0  0
  -45.7484   56.1795   67.4537 H   0  0  0  0  0  0  0  0  0  0  0  0
  -46.7230   58.3584   67.6070 H   0  0  0  0  0  0  0  0  0  0  0  0
  -45.1511   58.9886   68.1767 H   0  0  0  0  0  0  0  0  0  0  0  0
  -45.3169   57.7053   70.1565 H   0  0  0  0  0  0  0  0  0  0  0  0
  -46.8733   57.0495   69.5907 H   0  0  0  0  0  0  0  0  0  0  0  0
  -47.6132   58.7524   70.9900 H   0  0  0  0  0  0  0  0  0  0  0  0
  -47.3758   60.9367   70.5331 H   0  0  0  0  0  0  0  0  0  0  0  0
  -46.5580   61.4343   68.2203 H   0  0  0  0  0  0  0  0  0  0  0  0
  -45.4171   60.1170   68.4020 H   0  0  0  0  0  0  0  0  0  0  0  0
  -45.4863   62.6172   70.0583 H   0  0  0  0  0  0  0  0  0  0  0  0
  -44.3300   62.2153   68.7503 H   0  0  0  0  0  0  0  0  0  0  0  0
  -43.3331   61.9838   70.9204 H   0  0  0  0  0  0  0  0  0  0  0  0
  -43.4665   60.4430   70.0220 H   0  0  0  0  0  0  0  0  0  0  0  0
  -43.8857   60.1411   72.3759 H   0  0  0  0  0  0  0  0  0  0  0  0
  -45.2996   59.7899   71.3578 H   0  0  0  0  0  0  0  0  0  0  0  0
  -46.2787   61.8895   71.9464 H   0  0  0  0  0  0  0  0  0  0  0  0
  -44.8580   62.2553   72.9527 H   0  0  0  0  0  0  0  0  0  0  0  0
  -46.7365   61.5760   74.2915 H   0  0  0  0  0  0  0  0  0  0  0  0
  -45.3641   60.4270   74.3626 H   0  0  0  0  0  0  0  0  0  0  0  0
  -47.8724   60.0158   72.8241 H   0  0  0  0  0  0  0  0  0  0  0  0
  -47.4607   59.2884   74.3860 H   0  0  0  0  0  0  0  0  0  0  0  0
  -45.9878   58.8860   71.8316 H   0  0  0  0  0  0  0  0  0  0  0  0
  -47.0655   57.7404   72.5927 H   0  0  0  0  0  0  0  0  0  0  0  0
  -45.5737   58.1935   73.3815 H   0  0  0  0  0  0  0  0  0  0  0  0
  1  9  1  0  0  0  0
  1 11  1  0  0  0  0
  1 13  1  0  0  0  0
  1 15  1  0  0  0  0
  2  3  1  0  0  0  0
  2  5  1  0  0  0  0
  2 17  1  0  0  0  0
  2 36  1  6  0  0  0
  3 37  1  0  0  0  0
  4  6  1  0  0  0  0
  4  8  2  6  0  0  0
  4 10  1  0  0  0  0
  4 12  1  0  0  0  0
  5  6  1  0  0  0  0
  5 38  1  0  0  0  0
  5 39  1  0  0  0  0
  7  9  1  0  0  0  0
  7 10  1  0  0  0  0
  7 40  1  0  0  0  0
  7 41  1  0  0  0  0
  9 42  1  0  0  0  0
  9 43  1  0  0  0  0
 11 44  1  0  0  0  0
 11 45  1  0  0  0  0
 11 46  1  0  0  0  0
 12 47  1  0  0  0  0
 13 48  1  0  0  0  0
 13 49  1  0  0  0  0
 13 50  1  0  0  0  0
 14 17  1  0  0  0  0
 14 18  1  0  0  0  0
 15 51  1  0  0  0  0
 15 52  1  0  0  0  0
 15 53  1  0  0  0  0
 16 18  2  0  0  0  0
 17 54  1  0  0  0  0
 17 55  1  0  0  0  0
 18 19  1  0  0  0  0
 19 20  1  0  0  0  0
 19 56  1  0  0  0  0
 19 57  1  0  0  0  0
 20 21  1  0  0  0  0
 20 58  1  0  0  0  0
 20 59  1  0  0  0  0
 21 22  1  0  0  0  0
 21 60  1  0  0  0  0
 21 61  1  0  0  0  0
 22 23  1  0  0  0  0
 22 62  1  0  0  0  0
 22 63  1  0  0  0  0
 23 24  1  0  0  0  0
 23 64  1  0  0  0  0
 23 65  1  0  0  0  0
 24 25  1  0  0  0  0
 24 66  1  0  0  0  0
 24 67  1  0  0  0  0
 25 26  1  0  0  0  0
 25 68  1  0  0  0  0
 25 69  1  0  0  0  0
 26 27  2  0  0  0  0
 26 70  1  0  0  0  0
 27 28  1  0  0  0  0
 27 71  1  0  0  0  0
 28 29  1  0  0  0  0
 28 72  1  0  0  0  0
 28 73  1  0  0  0  0
 29 30  1  0  0  0  0
 29 74  1  0  0  0  0
 29 75  1  0  0  0  0
 30 31  1  0  0  0  0
 30 76  1  0  0  0  0
 30 77  1  0  0  0  0
 31 32  1  0  0  0  0
 31 78  1  0  0  0  0
 31 79  1  0  0  0  0
 32 33  1  0  0  0  0
 32 80  1  0  0  0  0
 32 81  1  0  0  0  0
 33 34  1  0  0  0  0
 33 82  1  0  0  0  0
 33 83  1  0  0  0  0
 34 35  1  0  0  0  0
 34 84  1  0  0  0  0
 34 85  1  0  0  0  0
 35 86  1  0  0  0  0
 35 87  1  0  0  0  0
 35 88  1  0  0  0  0
M  CHG  1   8  -1
M  END
$$$$