/media/chris/experiments/cd1a-new-docking/inputs/ligands/4x6e_ligand.pdb
 OpenBabel07012320273D

 88 87  0  0  1  0  0  0  0  0999 V2000
  -39.9679   56.7495   69.3834 N   0  0  0  0  0  4  0  0  0  0  0  0
  -40.2814   62.9435   65.8410 C   0  0  1  0  0  0  0  0  0  0  0  0
  -40.1429   64.2792   65.3380 O   0  0  0  0  0  0  0  0  0  0  0  0
  -37.8788   59.8310   66.7316 P   0  0  1  0  0  0  0  0  0  0  0  0
  -38.9182   62.3000   65.9406 C   0  0  0  0  0  0  0  0  0  0  0  0
  -38.9997   60.9392   66.4294 O   0  0  0  0  0  0  0  0  0  0  0  0
  -39.2014   59.1856   69.0678 C   0  0  0  0  0  0  0  0  0  0  0  0
  -36.5933   60.5503   67.1368 O   0  5  0  0  0  0  0  0  0  0  0  0
  -39.3721   58.0054   69.9920 C   0  0  0  0  0  0  0  0  0  0  0  0
  -38.3352   58.8314   67.9555 O   0  0  0  0  0  0  0  0  0  0  0  0
  -39.1011   56.2420   68.2760 C   0  0  0  0  0  0  0  0  0  0  0  0
  -37.6201   59.0681   65.4909 O   0  0  0  0  0  0  0  0  0  0  0  0
  -41.3162   57.0795   68.8322 C   0  0  0  0  0  0  0  0  0  0  0  0
  -41.1598   61.5943   67.6857 O   0  0  0  0  0  0  0  0  0  0  0  0
  -40.1051   55.6744   70.4234 C   0  0  0  0  0  0  0  0  0  0  0  0
  -43.3023   61.0962   67.2230 O   0  0  0  0  0  0  0  0  0  0  0  0
  -41.0271   62.9327   67.1586 C   0  0  0  0  0  0  0  0  0  0  0  0
  -42.1287   60.8209   67.1868 C   0  0  0  0  0  0  0  0  0  0  0  0
  -41.5470   59.5850   66.5720 C   0  0  0  0  0  0  0  0  0  0  0  0
  -42.4780   58.3810   66.6510 C   0  0  0  0  0  0  0  0  0  0  0  0
  -43.8050   58.5690   65.9360 C   0  0  0  0  0  0  0  0  0  0  0  0
  -43.6578   58.8291   64.4471 C   0  0  0  0  0  0  0  0  0  0  0  0
  -44.9905   59.0322   63.7470 C   0  0  0  0  0  0  0  0  0  0  0  0
  -45.7496   60.2198   64.2955 C   0  0  0  0  0  0  0  0  0  0  0  0
  -45.0364   61.5492   64.1547 C   0  0  0  0  0  0  0  0  0  0  0  0
  -45.7864   62.6981   64.7114 C   0  0  0  0  0  0  0  0  0  0  0  0
  -45.7351   63.9410   64.2787 C   0  0  0  0  0  0  0  0  0  0  0  0
  -44.9514   64.4614   63.1178 C   0  0  0  0  0  0  0  0  0  0  0  0
  -43.9599   65.5273   63.5871 C   0  0  0  0  0  0  0  0  0  0  0  0
  -42.9251   65.0553   64.5980 C   0  0  0  0  0  0  0  0  0  0  0  0
  -42.0099   63.9390   64.1097 C   0  0  0  0  0  0  0  0  0  0  0  0
  -41.1772   64.3232   62.8911 C   0  0  0  0  0  0  0  0  0  0  0  0
  -40.2747   63.2070   62.3895 C   0  0  0  0  0  0  0  0  0  0  0  0
  -39.4146   63.5566   61.1843 C   0  0  0  0  0  0  0  0  0  0  0  0
  -38.5622   62.4123   60.7290 C   0  0  0  0  0  0  0  0  0  0  0  0
  -40.8700   62.3642   65.1606 H   0  0  0  0  0  0  0  0  0  0  0  0
  -39.6093   64.8035   65.9555 H   0  0  0  0  0  0  0  0  0  0  0  0
  -38.3129   62.8732   66.6114 H   0  0  0  0  0  0  0  0  0  0  0  0
  -38.4895   62.2761   64.9605 H   0  0  0  0  0  0  0  0  0  0  0  0
  -38.7657   59.9988   69.6098 H   0  0  0  0  0  0  0  0  0  0  0  0
  -40.1593   59.4719   68.6867 H   0  0  0  0  0  0  0  0  0  0  0  0
  -38.4069   57.7530   70.3786 H   0  0  0  0  0  0  0  0  0  0  0  0
  -40.0774   58.3241   70.7308 H   0  0  0  0  0  0  0  0  0  0  0  0
  -38.9964   57.0006   67.5287 H   0  0  0  0  0  0  0  0  0  0  0  0
  -39.5495   55.3730   67.8418 H   0  0  0  0  0  0  0  0  0  0  0  0
  -38.1369   55.9892   68.6651 H   0  0  0  0  0  0  0  0  0  0  0  0
  -37.3532   59.6784   64.7858 H   0  0  0  0  0  0  0  0  0  0  0  0
  -41.2208   57.8453   68.0910 H   0  0  0  0  0  0  0  0  0  0  0  0
  -41.9498   57.4247   69.6222 H   0  0  0  0  0  0  0  0  0  0  0  0
  -41.7439   56.2048   68.3883 H   0  0  0  0  0  0  0  0  0  0  0  0
  -39.1401   55.4364   70.8198 H   0  0  0  0  0  0  0  0  0  0  0  0
  -40.5335   54.8005   69.9787 H   0  0  0  0  0  0  0  0  0  0  0  0
  -40.7394   56.0204   71.2126 H   0  0  0  0  0  0  0  0  0  0  0  0
  -42.0031   63.3447   67.0082 H   0  0  0  0  0  0  0  0  0  0  0  0
  -40.4698   63.5150   67.8624 H   0  0  0  0  0  0  0  0  0  0  0  0
  -40.6379   59.3462   67.0832 H   0  0  0  0  0  0  0  0  0  0  0  0
  -41.3821   59.7924   65.5353 H   0  0  0  0  0  0  0  0  0  0  0  0
  -42.6787   58.1797   67.6825 H   0  0  0  0  0  0  0  0  0  0  0  0
  -41.9769   57.5734   66.1596 H   0  0  0  0  0  0  0  0  0  0  0  0
  -44.3126   59.4014   66.3769 H   0  0  0  0  0  0  0  0  0  0  0  0
  -44.3534   57.6566   66.0440 H   0  0  0  0  0  0  0  0  0  0  0  0
  -43.1625   57.9917   64.0018 H   0  0  0  0  0  0  0  0  0  0  0  0
  -43.0949   59.7319   64.3334 H   0  0  0  0  0  0  0  0  0  0  0  0
  -45.5857   58.1527   63.8776 H   0  0  0  0  0  0  0  0  0  0  0  0
  -44.7924   59.2187   62.7122 H   0  0  0  0  0  0  0  0  0  0  0  0
  -45.9307   60.0476   65.3359 H   0  0  0  0  0  0  0  0  0  0  0  0
  -46.6472   60.2966   63.7181 H   0  0  0  0  0  0  0  0  0  0  0  0
  -44.8665   61.7311   63.1140 H   0  0  0  0  0  0  0  0  0  0  0  0
  -44.1274   61.4732   64.7141 H   0  0  0  0  0  0  0  0  0  0  0  0
  -46.4072   62.5071   65.5134 H   0  0  0  0  0  0  0  0  0  0  0  0
  -46.2983   64.6318   64.7989 H   0  0  0  0  0  0  0  0  0  0  0  0
  -45.6214   64.8917   62.4031 H   0  0  0  0  0  0  0  0  0  0  0  0
  -44.4108   63.6536   62.6704 H   0  0  0  0  0  0  0  0  0  0  0  0
  -44.5179   66.3239   64.0332 H   0  0  0  0  0  0  0  0  0  0  0  0
  -43.4101   65.8221   62.7178 H   0  0  0  0  0  0  0  0  0  0  0  0
  -43.4444   64.7034   65.4649 H   0  0  0  0  0  0  0  0  0  0  0  0
  -42.2930   65.8961   64.7936 H   0  0  0  0  0  0  0  0  0  0  0  0
  -42.6139   63.0935   63.8541 H   0  0  0  0  0  0  0  0  0  0  0  0
  -41.3252   63.7240   64.9033 H   0  0  0  0  0  0  0  0  0  0  0  0
  -40.5649   65.1612   63.1512 H   0  0  0  0  0  0  0  0  0  0  0  0
  -41.8639   64.5478   62.1019 H   0  0  0  0  0  0  0  0  0  0  0  0
  -40.8939   62.3759   62.1235 H   0  0  0  0  0  0  0  0  0  0  0  0
  -39.5935   62.9970   63.1875 H   0  0  0  0  0  0  0  0  0  0  0  0
  -38.7771   64.3755   61.4451 H   0  0  0  0  0  0  0  0  0  0  0  0
  -40.0737   63.8079   60.3798 H   0  0  0  0  0  0  0  0  0  0  0  0
  -37.8889   62.1350   61.5131 H   0  0  0  0  0  0  0  0  0  0  0  0
  -38.0025   62.7059   59.8656 H   0  0  0  0  0  0  0  0  0  0  0  0
  -39.1861   61.5785   60.4831 H   0  0  0  0  0  0  0  0  0  0  0  0
  1  9  1  0  0  0  0
  1 11  1  0  0  0  0
  1 13  1  0  0  0  0
  1 15  1  0  0  0  0
  2  3  1  0  0  0  0
  2  5  1  0  0  0  0
  2 17  1  0  0  0  0
  2 36  1  6  0  0  0
  3 37  1  0  0  0  0
  4  6  1  0  0  0  0
  4  8  2  1  0  0  0
  4 10  1  0  0  0  0
  4 12  1  0  0  0  0
  5  6  1  0  0  0  0
  5 38  1  0  0  0  0
  5 39  1  0  0  0  0
  7  9  1  0  0  0  0
  7 10  1  0  0  0  0
  7 40  1  0  0  0  0
  7 41  1  0  0  0  0
  9 42  1  0  0  0  0
  9 43  1  0  0  0  0
 11 44  1  0  0  0  0
 11 45  1  0  0  0  0
 11 46  1  0  0  0  0
 12 47  1  0  0  0  0
 13 48  1  0  0  0  0
 13 49  1  0  0  0  0
 13 50  1  0  0  0  0
 14 17  1  0  0  0  0
 14 18  1  0  0  0  0
 15 51  1  0  0  0  0
 15 52  1  0  0  0  0
 15 53  1  0  0  0  0
 16 18  2  0  0  0  0
 17 54  1  0  0  0  0
 17 55  1  0  0  0  0
 18 19  1  0  0  0  0
 19 20  1  0  0  0  0
 19 56  1  0  0  0  0
 19 57  1  0  0  0  0
 20 21  1  0  0  0  0
 20 58  1  0  0  0  0
 20 59  1  0  0  0  0
 21 22  1  0  0  0  0
 21 60  1  0  0  0  0
 21 61  1  0  0  0  0
 22 23  1  0  0  0  0
 22 62  1  0  0  0  0
 22 63  1  0  0  0  0
 23 24  1  0  0  0  0
 23 64  1  0  0  0  0
 23 65  1  0  0  0  0
 24 25  1  0  0  0  0
 24 66  1  0  0  0  0
 24 67  1  0  0  0  0
 25 26  1  0  0  0  0
 25 68  1  0  0  0  0
 25 69  1  0  0  0  0
 26 27  2  0  0  0  0
 26 70  1  0  0  0  0
 27 28  1  0  0  0  0
 27 71  1  0  0  0  0
 28 29  1  0  0  0  0
 28 72  1  0  0  0  0
 28 73  1  0  0  0  0
 29 30  1  0  0  0  0
 29 74  1  0  0  0  0
 29 75  1  0  0  0  0
 30 31  1  0  0  0  0
 30 76  1  0  0  0  0
 30 77  1  0  0  0  0
 31 32  1  0  0  0  0
 31 78  1  0  0  0  0
 31 79  1  0  0  0  0
 32 33  1  0  0  0  0
 32 80  1  0  0  0  0
 32 81  1  0  0  0  0
 33 34  1  0  0  0  0
 33 82  1  0  0  0  0
 33 83  1  0  0  0  0
 34 35  1  0  0  0  0
 34 84  1  0  0  0  0
 34 85  1  0  0  0  0
 35 86  1  0  0  0  0
 35 87  1  0  0  0  0
 35 88  1  0  0  0  0
M  CHG  1   8  -1
M  END
$$$$