/media/chris/experiments/cd1a-new-docking/inputs/ligands/4x6e_ligand.pdb
 OpenBabel07012320273D

 88 87  0  0  1  0  0  0  0  0999 V2000
  -41.9840   52.4327   72.7613 N   0  0  0  0  0  4  0  0  0  0  0  0
  -40.7031   56.2281   68.6419 C   0  0  1  0  0  0  0  0  0  0  0  0
  -42.0642   56.6699   68.5484 O   0  0  0  0  0  0  0  0  0  0  0  0
  -41.5469   53.0115   69.0487 P   0  0  1  0  0  0  0  0  0  0  0  0
  -40.4542   55.1465   67.6169 C   0  0  0  0  0  0  0  0  0  0  0  0
  -41.3301   54.0095   67.8106 O   0  0  0  0  0  0  0  0  0  0  0  0
  -42.4913   54.4304   71.2207 C   0  0  0  0  0  0  0  0  0  0  0  0
  -40.2279   52.9044   69.8122 O   0  5  0  0  0  0  0  0  0  0  0  0
  -41.5485   53.7726   72.1977 C   0  0  0  0  0  0  0  0  0  0  0  0
  -42.7085   53.5659   70.0725 O   0  0  0  0  0  0  0  0  0  0  0  0
  -43.2873   52.5660   73.4816 C   0  0  0  0  0  0  0  0  0  0  0  0
  -41.8963   51.6736   68.5231 O   0  0  0  0  0  0  0  0  0  0  0  0
  -40.9442   51.9586   73.7228 C   0  0  0  0  0  0  0  0  0  0  0  0
  -39.9068   58.0724   67.2423 O   0  0  0  0  0  0  0  0  0  0  0  0
  -42.1399   51.4236   71.6595 C   0  0  0  0  0  0  0  0  0  0  0  0
  -39.5686   60.2284   67.7807 O   0  0  0  0  0  0  0  0  0  0  0  0
  -39.7430   57.3907   68.5053 C   0  0  0  0  0  0  0  0  0  0  0  0
  -40.2402   59.3661   67.2706 C   0  0  0  0  0  0  0  0  0  0  0  0
  -41.5470   59.5850   66.5720 C   0  0  0  0  0  0  0  0  0  0  0  0
  -42.4780   58.3810   66.6510 C   0  0  0  0  0  0  0  0  0  0  0  0
  -43.8050   58.5690   65.9360 C   0  0  0  0  0  0  0  0  0  0  0  0
  -44.7241   57.3648   66.0412 C   0  0  0  0  0  0  0  0  0  0  0  0
  -45.0954   57.0268   67.4749 C   0  0  0  0  0  0  0  0  0  0  0  0
  -45.9968   55.8154   67.5620 C   0  0  0  0  0  0  0  0  0  0  0  0
  -45.3981   54.5376   67.0099 C   0  0  0  0  0  0  0  0  0  0  0  0
  -44.1629   54.1026   67.7007 C   0  0  0  0  0  0  0  0  0  0  0  0
  -43.9888   52.9601   68.3324 C   0  0  0  0  0  0  0  0  0  0  0  0
  -44.9695   51.8401   68.4600 C   0  0  0  0  0  0  0  0  0  0  0  0
  -45.8240   52.0286   69.7145 C   0  0  0  0  0  0  0  0  0  0  0  0
  -46.8565   50.9403   69.9698 C   0  0  0  0  0  0  0  0  0  0  0  0
  -47.7144   51.1451   71.2125 C   0  0  0  0  0  0  0  0  0  0  0  0
  -46.9068   51.2263   72.5037 C   0  0  0  0  0  0  0  0  0  0  0  0
  -47.7595   51.4136   73.7486 C   0  0  0  0  0  0  0  0  0  0  0  0
  -46.9892   51.5161   75.0564 C   0  0  0  0  0  0  0  0  0  0  0  0
  -46.0467   52.6799   75.0843 C   0  0  0  0  0  0  0  0  0  0  0  0
  -40.5286   55.8096   69.6111 H   0  0  0  0  0  0  0  0  0  0  0  0
  -42.2214   57.0491   67.6695 H   0  0  0  0  0  0  0  0  0  0  0  0
  -39.4388   54.8193   67.6985 H   0  0  0  0  0  0  0  0  0  0  0  0
  -40.6500   55.5556   66.6478 H   0  0  0  0  0  0  0  0  0  0  0  0
  -42.0689   55.3565   70.8909 H   0  0  0  0  0  0  0  0  0  0  0  0
  -43.4283   54.6082   71.7058 H   0  0  0  0  0  0  0  0  0  0  0  0
  -40.6131   53.6270   71.6990 H   0  0  0  0  0  0  0  0  0  0  0  0
  -41.5058   54.4331   73.0385 H   0  0  0  0  0  0  0  0  0  0  0  0
  -43.1877   53.2831   74.2694 H   0  0  0  0  0  0  0  0  0  0  0  0
  -43.5651   51.6187   73.8945 H   0  0  0  0  0  0  0  0  0  0  0  0
  -44.0418   52.8915   72.7963 H   0  0  0  0  0  0  0  0  0  0  0  0
  -41.1974   51.3691   67.9233 H   0  0  0  0  0  0  0  0  0  0  0  0
  -40.8315   52.6760   74.5086 H   0  0  0  0  0  0  0  0  0  0  0  0
  -40.0120   51.8410   73.2108 H   0  0  0  0  0  0  0  0  0  0  0  0
  -41.2441   51.0191   74.1379 H   0  0  0  0  0  0  0  0  0  0  0  0
  -42.8845   51.7613   70.9693 H   0  0  0  0  0  0  0  0  0  0  0  0
  -42.4391   50.4844   72.0758 H   0  0  0  0  0  0  0  0  0  0  0  0
  -41.2070   51.3063   71.1487 H   0  0  0  0  0  0  0  0  0  0  0  0
  -38.7406   57.0226   68.5734 H   0  0  0  0  0  0  0  0  0  0  0  0
  -39.9491   58.0880   69.2903 H   0  0  0  0  0  0  0  0  0  0  0  0
  -41.3508   59.7963   65.5416 H   0  0  0  0  0  0  0  0  0  0  0  0
  -42.0377   60.3996   67.0625 H   0  0  0  0  0  0  0  0  0  0  0  0
  -42.6787   58.1797   67.6825 H   0  0  0  0  0  0  0  0  0  0  0  0
  -41.9769   57.5734   66.1596 H   0  0  0  0  0  0  0  0  0  0  0  0
  -43.6088   58.7562   64.9009 H   0  0  0  0  0  0  0  0  0  0  0  0
  -44.3043   59.3890   66.4084 H   0  0  0  0  0  0  0  0  0  0  0  0
  -44.2305   56.5199   65.6083 H   0  0  0  0  0  0  0  0  0  0  0  0
  -45.6292   57.6059   65.5239 H   0  0  0  0  0  0  0  0  0  0  0  0
  -45.6019   57.8648   67.9062 H   0  0  0  0  0  0  0  0  0  0  0  0
  -44.1925   56.8028   68.0036 H   0  0  0  0  0  0  0  0  0  0  0  0
  -46.8922   56.0267   67.0158 H   0  0  0  0  0  0  0  0  0  0  0  0
  -46.1690   55.6421   68.6037 H   0  0  0  0  0  0  0  0  0  0  0  0
  -45.1686   54.6929   65.9765 H   0  0  0  0  0  0  0  0  0  0  0  0
  -46.1242   53.7661   67.1599 H   0  0  0  0  0  0  0  0  0  0  0  0
  -43.3638   54.7555   67.6857 H   0  0  0  0  0  0  0  0  0  0  0  0
  -43.0739   52.8234   68.7899 H   0  0  0  0  0  0  0  0  0  0  0  0
  -44.4404   50.9126   68.5284 H   0  0  0  0  0  0  0  0  0  0  0  0
  -45.6068   51.8336   67.6005 H   0  0  0  0  0  0  0  0  0  0  0  0
  -46.3419   52.9606   69.6244 H   0  0  0  0  0  0  0  0  0  0  0  0
  -45.1460   51.9920   70.5415 H   0  0  0  0  0  0  0  0  0  0  0  0
  -46.3390   50.0096   70.0734 H   0  0  0  0  0  0  0  0  0  0  0  0
  -47.5272   50.9632   69.1364 H   0  0  0  0  0  0  0  0  0  0  0  0
  -48.3972   50.3250   71.2913 H   0  0  0  0  0  0  0  0  0  0  0  0
  -48.2171   52.0825   71.0965 H   0  0  0  0  0  0  0  0  0  0  0  0
  -46.2327   52.0538   72.4287 H   0  0  0  0  0  0  0  0  0  0  0  0
  -46.3968   50.2920   72.6123 H   0  0  0  0  0  0  0  0  0  0  0  0
  -48.4249   50.5789   73.8217 H   0  0  0  0  0  0  0  0  0  0  0  0
  -48.2592   52.3517   73.6258 H   0  0  0  0  0  0  0  0  0  0  0  0
  -46.4261   50.6166   75.1932 H   0  0  0  0  0  0  0  0  0  0  0  0
  -47.7028   51.6603   75.8406 H   0  0  0  0  0  0  0  0  0  0  0  0
  -45.3172   52.5668   74.3097 H   0  0  0  0  0  0  0  0  0  0  0  0
  -45.5553   52.7183   76.0341 H   0  0  0  0  0  0  0  0  0  0  0  0
  -46.5941   53.5861   74.9291 H   0  0  0  0  0  0  0  0  0  0  0  0
  1  9  1  0  0  0  0
  1 11  1  0  0  0  0
  1 13  1  0  0  0  0
  1 15  1  0  0  0  0
  2  3  1  0  0  0  0
  2  5  1  0  0  0  0
  2 17  1  0  0  0  0
  2 36  1  1  0  0  0
  3 37  1  0  0  0  0
  4  6  1  0  0  0  0
  4  8  2  1  0  0  0
  4 10  1  0  0  0  0
  4 12  1  0  0  0  0
  5  6  1  0  0  0  0
  5 38  1  0  0  0  0
  5 39  1  0  0  0  0
  7  9  1  0  0  0  0
  7 10  1  0  0  0  0
  7 40  1  0  0  0  0
  7 41  1  0  0  0  0
  9 42  1  0  0  0  0
  9 43  1  0  0  0  0
 11 44  1  0  0  0  0
 11 45  1  0  0  0  0
 11 46  1  0  0  0  0
 12 47  1  0  0  0  0
 13 48  1  0  0  0  0
 13 49  1  0  0  0  0
 13 50  1  0  0  0  0
 14 17  1  0  0  0  0
 14 18  1  0  0  0  0
 15 51  1  0  0  0  0
 15 52  1  0  0  0  0
 15 53  1  0  0  0  0
 16 18  2  0  0  0  0
 17 54  1  0  0  0  0
 17 55  1  0  0  0  0
 18 19  1  0  0  0  0
 19 20  1  0  0  0  0
 19 56  1  0  0  0  0
 19 57  1  0  0  0  0
 20 21  1  0  0  0  0
 20 58  1  0  0  0  0
 20 59  1  0  0  0  0
 21 22  1  0  0  0  0
 21 60  1  0  0  0  0
 21 61  1  0  0  0  0
 22 23  1  0  0  0  0
 22 62  1  0  0  0  0
 22 63  1  0  0  0  0
 23 24  1  0  0  0  0
 23 64  1  0  0  0  0
 23 65  1  0  0  0  0
 24 25  1  0  0  0  0
 24 66  1  0  0  0  0
 24 67  1  0  0  0  0
 25 26  1  0  0  0  0
 25 68  1  0  0  0  0
 25 69  1  0  0  0  0
 26 27  2  0  0  0  0
 26 70  1  0  0  0  0
 27 28  1  0  0  0  0
 27 71  1  0  0  0  0
 28 29  1  0  0  0  0
 28 72  1  0  0  0  0
 28 73  1  0  0  0  0
 29 30  1  0  0  0  0
 29 74  1  0  0  0  0
 29 75  1  0  0  0  0
 30 31  1  0  0  0  0
 30 76  1  0  0  0  0
 30 77  1  0  0  0  0
 31 32  1  0  0  0  0
 31 78  1  0  0  0  0
 31 79  1  0  0  0  0
 32 33  1  0  0  0  0
 32 80  1  0  0  0  0
 32 81  1  0  0  0  0
 33 34  1  0  0  0  0
 33 82  1  0  0  0  0
 33 83  1  0  0  0  0
 34 35  1  0  0  0  0
 34 84  1  0  0  0  0
 34 85  1  0  0  0  0
 35 86  1  0  0  0  0
 35 87  1  0  0  0  0
 35 88  1  0  0  0  0
M  CHG  1   8  -1
M  END
$$$$