/media/chris/experiments/cd1a-new-docking/inputs/ligands/4x6e_ligand.pdb
 OpenBabel07012320273D

 88 87  0  0  1  0  0  0  0  0999 V2000
  -50.5636   63.3427   64.2246 N   0  0  0  0  0  4  0  0  0  0  0  0
  -45.0724   62.5950   67.5462 C   0  0  1  0  0  0  0  0  0  0  0  0
  -44.2618   63.5755   66.8845 O   0  0  0  0  0  0  0  0  0  0  0  0
  -48.2356   60.2566   66.6633 P   0  0  1  0  0  0  0  0  0  0  0  0
  -46.1295   62.0900   66.5923 C   0  0  0  0  0  0  0  0  0  0  0  0
  -46.9904   61.1058   67.2148 O   0  0  0  0  0  0  0  0  0  0  0  0
  -50.4726   60.9670   65.2091 C   0  0  0  0  0  0  0  0  0  0  0  0
  -49.1855   59.9895   67.8298 O   0  5  0  0  0  0  0  0  0  0  0  0
  -50.8429   61.8612   64.0518 C   0  0  0  0  0  0  0  0  0  0  0  0
  -49.0509   61.0749   65.4925 O   0  0  0  0  0  0  0  0  0  0  0  0
  -49.1024   63.5794   64.4345 C   0  0  0  0  0  0  0  0  0  0  0  0
  -47.7371   58.9595   66.1560 O   0  0  0  0  0  0  0  0  0  0  0  0
  -51.3116   63.8332   65.4205 C   0  0  0  0  0  0  0  0  0  0  0  0
  -43.4610   60.8104   67.0845 O   0  0  0  0  0  0  0  0  0  0  0  0
  -51.0092   64.1075   63.0109 C   0  0  0  0  0  0  0  0  0  0  0  0
  -41.4959   61.7028   67.7127 O   0  0  0  0  0  0  0  0  0  0  0  0
  -44.2214   61.4792   68.1147 C   0  0  0  0  0  0  0  0  0  0  0  0
  -42.1287   60.8209   67.1868 C   0  0  0  0  0  0  0  0  0  0  0  0
  -41.5470   59.5850   66.5720 C   0  0  0  0  0  0  0  0  0  0  0  0
  -42.4780   58.3810   66.6510 C   0  0  0  0  0  0  0  0  0  0  0  0
  -43.8050   58.5690   65.9360 C   0  0  0  0  0  0  0  0  0  0  0  0
  -43.6578   58.8291   64.4471 C   0  0  0  0  0  0  0  0  0  0  0  0
  -44.9905   59.0322   63.7470 C   0  0  0  0  0  0  0  0  0  0  0  0
  -45.7496   60.2198   64.2955 C   0  0  0  0  0  0  0  0  0  0  0  0
  -45.0364   61.5492   64.1547 C   0  0  0  0  0  0  0  0  0  0  0  0
  -44.7510   61.9354   62.7541 C   0  0  0  0  0  0  0  0  0  0  0  0
  -43.5596   62.1557   62.2376 C   0  0  0  0  0  0  0  0  0  0  0  0
  -42.2394   62.0283   62.9258 C   0  0  0  0  0  0  0  0  0  0  0  0
  -41.1072   62.3947   61.9649 C   0  0  0  0  0  0  0  0  0  0  0  0
  -41.0231   61.5482   60.7032 C   0  0  0  0  0  0  0  0  0  0  0  0
  -42.2541   61.6044   59.8066 C   0  0  0  0  0  0  0  0  0  0  0  0
  -42.1410   60.7312   58.5612 C   0  0  0  0  0  0  0  0  0  0  0  0
  -43.3598   60.7968   57.6546 C   0  0  0  0  0  0  0  0  0  0  0  0
  -44.6728   60.3749   58.2967 C   0  0  0  0  0  0  0  0  0  0  0  0
  -44.6426   58.9669   58.8068 C   0  0  0  0  0  0  0  0  0  0  0  0
  -45.5694   63.0453   68.3799 H   0  0  0  0  0  0  0  0  0  0  0  0
  -43.8117   63.1663   66.1289 H   0  0  0  0  0  0  0  0  0  0  0  0
  -45.6485   61.6440   65.7469 H   0  0  0  0  0  0  0  0  0  0  0  0
  -46.7347   62.9213   66.2964 H   0  0  0  0  0  0  0  0  0  0  0  0
  -50.7076   59.9529   64.9615 H   0  0  0  0  0  0  0  0  0  0  0  0
  -51.0248   61.2694   66.0743 H   0  0  0  0  0  0  0  0  0  0  0  0
  -50.2980   61.5255   63.1943 H   0  0  0  0  0  0  0  0  0  0  0  0
  -51.9061   61.7820   63.9617 H   0  0  0  0  0  0  0  0  0  0  0  0
  -48.7739   63.0387   65.2974 H   0  0  0  0  0  0  0  0  0  0  0  0
  -48.9279   64.6248   64.5808 H   0  0  0  0  0  0  0  0  0  0  0  0
  -48.5598   63.2439   63.5755 H   0  0  0  0  0  0  0  0  0  0  0  0
  -47.2609   58.4971   66.8634 H   0  0  0  0  0  0  0  0  0  0  0  0
  -50.9957   63.2897   66.2864 H   0  0  0  0  0  0  0  0  0  0  0  0
  -52.3607   63.6860   65.2701 H   0  0  0  0  0  0  0  0  0  0  0  0
  -51.1143   64.8753   65.5619 H   0  0  0  0  0  0  0  0  0  0  0  0
  -50.4745   63.7577   62.1526 H   0  0  0  0  0  0  0  0  0  0  0  0
  -50.8121   65.1495   63.1537 H   0  0  0  0  0  0  0  0  0  0  0  0
  -52.0585   63.9602   62.8618 H   0  0  0  0  0  0  0  0  0  0  0  0
  -44.8593   60.7659   68.5934 H   0  0  0  0  0  0  0  0  0  0  0  0
  -43.5331   61.9071   68.8132 H   0  0  0  0  0  0  0  0  0  0  0  0
  -40.6379   59.3462   67.0832 H   0  0  0  0  0  0  0  0  0  0  0  0
  -41.3821   59.7924   65.5353 H   0  0  0  0  0  0  0  0  0  0  0  0
  -42.6787   58.1797   67.6825 H   0  0  0  0  0  0  0  0  0  0  0  0
  -41.9769   57.5734   66.1596 H   0  0  0  0  0  0  0  0  0  0  0  0
  -44.3126   59.4014   66.3769 H   0  0  0  0  0  0  0  0  0  0  0  0
  -44.3534   57.6566   66.0440 H   0  0  0  0  0  0  0  0  0  0  0  0
  -43.1625   57.9917   64.0018 H   0  0  0  0  0  0  0  0  0  0  0  0
  -43.0949   59.7319   64.3334 H   0  0  0  0  0  0  0  0  0  0  0  0
  -45.5857   58.1527   63.8776 H   0  0  0  0  0  0  0  0  0  0  0  0
  -44.7924   59.2187   62.7122 H   0  0  0  0  0  0  0  0  0  0  0  0
  -45.9307   60.0476   65.3359 H   0  0  0  0  0  0  0  0  0  0  0  0
  -46.6472   60.2966   63.7181 H   0  0  0  0  0  0  0  0  0  0  0  0
  -44.1079   61.4903   64.6831 H   0  0  0  0  0  0  0  0  0  0  0  0
  -45.6916   62.2953   64.5536 H   0  0  0  0  0  0  0  0  0  0  0  0
  -45.5612   62.0418   62.1237 H   0  0  0  0  0  0  0  0  0  0  0  0
  -43.5352   62.4487   61.2484 H   0  0  0  0  0  0  0  0  0  0  0  0
  -42.1093   61.0193   63.2574 H   0  0  0  0  0  0  0  0  0  0  0  0
  -42.2161   62.6933   63.7637 H   0  0  0  0  0  0  0  0  0  0  0  0
  -40.1814   62.2946   62.4920 H   0  0  0  0  0  0  0  0  0  0  0  0
  -41.3094   63.3931   61.6375 H   0  0  0  0  0  0  0  0  0  0  0  0
  -40.8720   60.5302   60.9960 H   0  0  0  0  0  0  0  0  0  0  0  0
  -40.2153   61.9492   60.1274 H   0  0  0  0  0  0  0  0  0  0  0  0
  -42.4015   62.6180   59.4971 H   0  0  0  0  0  0  0  0  0  0  0  0
  -43.0772   61.2305   60.3789 H   0  0  0  0  0  0  0  0  0  0  0  0
  -42.0054   59.7162   58.8717 H   0  0  0  0  0  0  0  0  0  0  0  0
  -41.3110   61.1001   57.9956 H   0  0  0  0  0  0  0  0  0  0  0  0
  -43.1820   60.1573   56.8154 H   0  0  0  0  0  0  0  0  0  0  0  0
  -43.4773   61.8274   57.3919 H   0  0  0  0  0  0  0  0  0  0  0  0
  -45.4521   60.4582   57.5682 H   0  0  0  0  0  0  0  0  0  0  0  0
  -44.8432   61.0179   59.1349 H   0  0  0  0  0  0  0  0  0  0  0  0
  -44.4734   58.2956   57.9909 H   0  0  0  0  0  0  0  0  0  0  0  0
  -45.5786   58.7355   59.2708 H   0  0  0  0  0  0  0  0  0  0  0  0
  -43.8543   58.8638   59.5229 H   0  0  0  0  0  0  0  0  0  0  0  0
  1  9  1  0  0  0  0
  1 11  1  0  0  0  0
  1 13  1  0  0  0  0
  1 15  1  0  0  0  0
  2  3  1  0  0  0  0
  2  5  1  0  0  0  0
  2 17  1  0  0  0  0
  2 36  1  1  0  0  0
  3 37  1  0  0  0  0
  4  6  1  0  0  0  0
  4  8  2  1  0  0  0
  4 10  1  0  0  0  0
  4 12  1  0  0  0  0
  5  6  1  0  0  0  0
  5 38  1  0  0  0  0
  5 39  1  0  0  0  0
  7  9  1  0  0  0  0
  7 10  1  0  0  0  0
  7 40  1  0  0  0  0
  7 41  1  0  0  0  0
  9 42  1  0  0  0  0
  9 43  1  0  0  0  0
 11 44  1  0  0  0  0
 11 45  1  0  0  0  0
 11 46  1  0  0  0  0
 12 47  1  0  0  0  0
 13 48  1  0  0  0  0
 13 49  1  0  0  0  0
 13 50  1  0  0  0  0
 14 17  1  0  0  0  0
 14 18  1  0  0  0  0
 15 51  1  0  0  0  0
 15 52  1  0  0  0  0
 15 53  1  0  0  0  0
 16 18  2  0  0  0  0
 17 54  1  0  0  0  0
 17 55  1  0  0  0  0
 18 19  1  0  0  0  0
 19 20  1  0  0  0  0
 19 56  1  0  0  0  0
 19 57  1  0  0  0  0
 20 21  1  0  0  0  0
 20 58  1  0  0  0  0
 20 59  1  0  0  0  0
 21 22  1  0  0  0  0
 21 60  1  0  0  0  0
 21 61  1  0  0  0  0
 22 23  1  0  0  0  0
 22 62  1  0  0  0  0
 22 63  1  0  0  0  0
 23 24  1  0  0  0  0
 23 64  1  0  0  0  0
 23 65  1  0  0  0  0
 24 25  1  0  0  0  0
 24 66  1  0  0  0  0
 24 67  1  0  0  0  0
 25 26  1  0  0  0  0
 25 68  1  0  0  0  0
 25 69  1  0  0  0  0
 26 27  2  0  0  0  0
 26 70  1  0  0  0  0
 27 28  1  0  0  0  0
 27 71  1  0  0  0  0
 28 29  1  0  0  0  0
 28 72  1  0  0  0  0
 28 73  1  0  0  0  0
 29 30  1  0  0  0  0
 29 74  1  0  0  0  0
 29 75  1  0  0  0  0
 30 31  1  0  0  0  0
 30 76  1  0  0  0  0
 30 77  1  0  0  0  0
 31 32  1  0  0  0  0
 31 78  1  0  0  0  0
 31 79  1  0  0  0  0
 32 33  1  0  0  0  0
 32 80  1  0  0  0  0
 32 81  1  0  0  0  0
 33 34  1  0  0  0  0
 33 82  1  0  0  0  0
 33 83  1  0  0  0  0
 34 35  1  0  0  0  0
 34 84  1  0  0  0  0
 34 85  1  0  0  0  0
 35 86  1  0  0  0  0
 35 87  1  0  0  0  0
 35 88  1  0  0  0  0
M  CHG  1   8  -1
M  END
$$$$