/media/chris/experiments/cd1a-new-docking/inputs/ligands/4x6e_ligand.pdb
 OpenBabel07012320273D

 88 87  0  0  1  0  0  0  0  0999 V2000
  -46.3742   60.7589   64.8913 N   0  0  0  0  0  4  0  0  0  0  0  0
  -39.2605   61.0236   63.2181 C   0  0  1  0  0  0  0  0  0  0  0  0
  -38.8017   61.2509   61.8786 O   0  0  0  0  0  0  0  0  0  0  0  0
  -42.4513   60.4240   62.3496 P   0  0  1  0  0  0  0  0  0  0  0  0
  -40.4197   61.9456   63.5156 C   0  0  0  0  0  0  0  0  0  0  0  0
  -41.5353   61.7135   62.6217 O   0  0  0  0  0  0  0  0  0  0  0  0
  -45.1982   60.4995   62.6172 C   0  0  0  0  0  0  0  0  0  0  0  0
  -42.5202   59.6067   63.6385 O   0  5  0  0  0  0  0  0  0  0  0  0
  -45.1696   61.0581   64.0184 C   0  0  0  0  0  0  0  0  0  0  0  0
  -43.9776   60.8517   61.9109 O   0  0  0  0  0  0  0  0  0  0  0  0
  -47.6211   61.2959   64.2653 C   0  0  0  0  0  0  0  0  0  0  0  0
  -41.8091   59.5990   61.3030 O   0  0  0  0  0  0  0  0  0  0  0  0
  -46.1764   61.4141   66.2187 C   0  0  0  0  0  0  0  0  0  0  0  0
  -40.0862   59.3247   64.7759 O   0  0  0  0  0  0  0  0  0  0  0  0
  -46.5286   59.2774   65.0857 C   0  0  0  0  0  0  0  0  0  0  0  0
  -41.8149   60.7290   64.4724 O   0  0  0  0  0  0  0  0  0  0  0  0
  -39.6067   59.5657   63.4347 C   0  0  0  0  0  0  0  0  0  0  0  0
  -41.1924   59.9644   65.1670 C   0  0  0  0  0  0  0  0  0  0  0  0
  -41.5470   59.5850   66.5720 C   0  0  0  0  0  0  0  0  0  0  0  0
  -42.4780   58.3810   66.6510 C   0  0  0  0  0  0  0  0  0  0  0  0
  -43.8050   58.5690   65.9360 C   0  0  0  0  0  0  0  0  0  0  0  0
  -44.7241   57.3648   66.0412 C   0  0  0  0  0  0  0  0  0  0  0  0
  -45.0954   57.0268   67.4749 C   0  0  0  0  0  0  0  0  0  0  0  0
  -45.8277   58.1599   68.1584 C   0  0  0  0  0  0  0  0  0  0  0  0
  -46.2114   57.8902   69.5993 C   0  0  0  0  0  0  0  0  0  0  0  0
  -46.9418   59.0031   70.2475 C   0  0  0  0  0  0  0  0  0  0  0  0
  -46.8144   60.2832   69.9650 C   0  0  0  0  0  0  0  0  0  0  0  0
  -45.9470   60.8938   68.9127 C   0  0  0  0  0  0  0  0  0  0  0  0
  -44.9387   61.8505   69.5512 C   0  0  0  0  0  0  0  0  0  0  0  0
  -43.9818   61.2174   70.5507 C   0  0  0  0  0  0  0  0  0  0  0  0
  -42.9921   62.1810   71.1943 C   0  0  0  0  0  0  0  0  0  0  0  0
  -42.0915   62.8909   70.1888 C   0  0  0  0  0  0  0  0  0  0  0  0
  -41.0905   63.8408   70.8271 C   0  0  0  0  0  0  0  0  0  0  0  0
  -41.6956   64.9645   71.6552 C   0  0  0  0  0  0  0  0  0  0  0  0
  -42.5058   64.4618   72.8104 C   0  0  0  0  0  0  0  0  0  0  0  0
  -38.4748   61.2492   63.9085 H   0  0  0  0  0  0  0  0  0  0  0  0
  -39.5146   61.0461   61.2535 H   0  0  0  0  0  0  0  0  0  0  0  0
  -40.0933   62.9587   63.4062 H   0  0  0  0  0  0  0  0  0  0  0  0
  -40.7493   61.7533   64.5153 H   0  0  0  0  0  0  0  0  0  0  0  0
  -46.0390   60.9033   62.0929 H   0  0  0  0  0  0  0  0  0  0  0  0
  -45.2768   59.4336   62.6681 H   0  0  0  0  0  0  0  0  0  0  0  0
  -44.3058   60.6609   64.5091 H   0  0  0  0  0  0  0  0  0  0  0  0
  -45.1634   62.1214   63.8992 H   0  0  0  0  0  0  0  0  0  0  0  0
  -47.5222   62.3517   64.1220 H   0  0  0  0  0  0  0  0  0  0  0  0
  -48.4551   61.0996   64.9063 H   0  0  0  0  0  0  0  0  0  0  0  0
  -47.7786   60.8209   63.3195 H   0  0  0  0  0  0  0  0  0  0  0  0
  -40.9121   59.3601   61.5847 H   0  0  0  0  0  0  0  0  0  0  0  0
  -46.0662   62.4696   66.0826 H   0  0  0  0  0  0  0  0  0  0  0  0
  -45.2964   61.0205   66.6831 H   0  0  0  0  0  0  0  0  0  0  0  0
  -47.0248   61.2214   66.8415 H   0  0  0  0  0  0  0  0  0  0  0  0
  -46.6705   58.8058   64.1358 H   0  0  0  0  0  0  0  0  0  0  0  0
  -47.3768   59.0860   65.7092 H   0  0  0  0  0  0  0  0  0  0  0  0
  -45.6484   58.8851   65.5507 H   0  0  0  0  0  0  0  0  0  0  0  0
  -38.7318   58.9728   63.2674 H   0  0  0  0  0  0  0  0  0  0  0  0
  -40.3850   59.3020   62.7495 H   0  0  0  0  0  0  0  0  0  0  0  0
  -42.0288   60.4189   67.0383 H   0  0  0  0  0  0  0  0  0  0  0  0
  -40.6378   59.3175   67.0687 H   0  0  0  0  0  0  0  0  0  0  0  0
  -42.6787   58.1797   67.6825 H   0  0  0  0  0  0  0  0  0  0  0  0
  -41.9769   57.5734   66.1596 H   0  0  0  0  0  0  0  0  0  0  0  0
  -43.6088   58.7562   64.9009 H   0  0  0  0  0  0  0  0  0  0  0  0
  -44.3043   59.3890   66.4084 H   0  0  0  0  0  0  0  0  0  0  0  0
  -44.2305   56.5199   65.6083 H   0  0  0  0  0  0  0  0  0  0  0  0
  -45.6292   57.6059   65.5239 H   0  0  0  0  0  0  0  0  0  0  0  0
  -44.2003   56.8156   68.0218 H   0  0  0  0  0  0  0  0  0  0  0  0
  -45.7484   56.1795   67.4537 H   0  0  0  0  0  0  0  0  0  0  0  0
  -46.7230   58.3584   67.6070 H   0  0  0  0  0  0  0  0  0  0  0  0
  -45.1511   58.9886   68.1767 H   0  0  0  0  0  0  0  0  0  0  0  0
  -45.3169   57.7053   70.1565 H   0  0  0  0  0  0  0  0  0  0  0  0
  -46.8733   57.0495   69.5907 H   0  0  0  0  0  0  0  0  0  0  0  0
  -47.6132   58.7524   70.9900 H   0  0  0  0  0  0  0  0  0  0  0  0
  -47.3758   60.9367   70.5331 H   0  0  0  0  0  0  0  0  0  0  0  0
  -46.5580   61.4343   68.2203 H   0  0  0  0  0  0  0  0  0  0  0  0
  -45.4171   60.1170   68.4020 H   0  0  0  0  0  0  0  0  0  0  0  0
  -45.4863   62.6172   70.0583 H   0  0  0  0  0  0  0  0  0  0  0  0
  -44.3300   62.2153   68.7503 H   0  0  0  0  0  0  0  0  0  0  0  0
  -43.4239   60.4593   70.0418 H   0  0  0  0  0  0  0  0  0  0  0  0
  -44.5886   60.8369   71.3457 H   0  0  0  0  0  0  0  0  0  0  0  0
  -42.3742   61.6293   71.8717 H   0  0  0  0  0  0  0  0  0  0  0  0
  -43.5656   62.9358   71.6904 H   0  0  0  0  0  0  0  0  0  0  0  0
  -42.7095   63.4517   69.5191 H   0  0  0  0  0  0  0  0  0  0  0  0
  -41.5266   62.1335   69.6865 H   0  0  0  0  0  0  0  0  0  0  0  0
  -40.5095   64.2829   70.0449 H   0  0  0  0  0  0  0  0  0  0  0  0
  -40.5148   63.2493   71.5079 H   0  0  0  0  0  0  0  0  0  0  0  0
  -42.3285   65.5522   71.0236 H   0  0  0  0  0  0  0  0  0  0  0  0
  -40.8879   65.5416   72.0547 H   0  0  0  0  0  0  0  0  0  0  0  0
  -43.3248   63.8785   72.4445 H   0  0  0  0  0  0  0  0  0  0  0  0
  -42.8815   65.2923   73.3707 H   0  0  0  0  0  0  0  0  0  0  0  0
  -41.8897   63.8555   73.4411 H   0  0  0  0  0  0  0  0  0  0  0  0
  1  9  1  0  0  0  0
  1 11  1  0  0  0  0
  1 13  1  0  0  0  0
  1 15  1  0  0  0  0
  2  3  1  0  0  0  0
  2  5  1  0  0  0  0
  2 17  1  0  0  0  0
  2 36  1  1  0  0  0
  3 37  1  0  0  0  0
  4  6  1  0  0  0  0
  4  8  2  1  0  0  0
  4 10  1  0  0  0  0
  4 12  1  0  0  0  0
  5  6  1  0  0  0  0
  5 38  1  0  0  0  0
  5 39  1  0  0  0  0
  7  9  1  0  0  0  0
  7 10  1  0  0  0  0
  7 40  1  0  0  0  0
  7 41  1  0  0  0  0
  9 42  1  0  0  0  0
  9 43  1  0  0  0  0
 11 44  1  0  0  0  0
 11 45  1  0  0  0  0
 11 46  1  0  0  0  0
 12 47  1  0  0  0  0
 13 48  1  0  0  0  0
 13 49  1  0  0  0  0
 13 50  1  0  0  0  0
 14 17  1  0  0  0  0
 14 18  1  0  0  0  0
 15 51  1  0  0  0  0
 15 52  1  0  0  0  0
 15 53  1  0  0  0  0
 16 18  2  0  0  0  0
 17 54  1  0  0  0  0
 17 55  1  0  0  0  0
 18 19  1  0  0  0  0
 19 20  1  0  0  0  0
 19 56  1  0  0  0  0
 19 57  1  0  0  0  0
 20 21  1  0  0  0  0
 20 58  1  0  0  0  0
 20 59  1  0  0  0  0
 21 22  1  0  0  0  0
 21 60  1  0  0  0  0
 21 61  1  0  0  0  0
 22 23  1  0  0  0  0
 22 62  1  0  0  0  0
 22 63  1  0  0  0  0
 23 24  1  0  0  0  0
 23 64  1  0  0  0  0
 23 65  1  0  0  0  0
 24 25  1  0  0  0  0
 24 66  1  0  0  0  0
 24 67  1  0  0  0  0
 25 26  1  0  0  0  0
 25 68  1  0  0  0  0
 25 69  1  0  0  0  0
 26 27  2  0  0  0  0
 26 70  1  0  0  0  0
 27 28  1  0  0  0  0
 27 71  1  0  0  0  0
 28 29  1  0  0  0  0
 28 72  1  0  0  0  0
 28 73  1  0  0  0  0
 29 30  1  0  0  0  0
 29 74  1  0  0  0  0
 29 75  1  0  0  0  0
 30 31  1  0  0  0  0
 30 76  1  0  0  0  0
 30 77  1  0  0  0  0
 31 32  1  0  0  0  0
 31 78  1  0  0  0  0
 31 79  1  0  0  0  0
 32 33  1  0  0  0  0
 32 80  1  0  0  0  0
 32 81  1  0  0  0  0
 33 34  1  0  0  0  0
 33 82  1  0  0  0  0
 33 83  1  0  0  0  0
 34 35  1  0  0  0  0
 34 84  1  0  0  0  0
 34 85  1  0  0  0  0
 35 86  1  0  0  0  0
 35 87  1  0  0  0  0
 35 88  1  0  0  0  0
M  CHG  1   8  -1
M  END
$$$$