/media/chris/experiments/cd1a-new-docking/inputs/ligands/4x6e_ligand.pdb
 OpenBabel07012320273D

 88 87  0  0  1  0  0  0  0  0999 V2000
  -43.0720   58.4620   75.9894 N   0  0  0  0  0  4  0  0  0  0  0  0
  -43.8031   62.2399   69.4030 C   0  0  1  0  0  0  0  0  0  0  0  0
  -44.9598   62.7416   68.7199 O   0  0  0  0  0  0  0  0  0  0  0  0
  -42.4415   62.0207   73.1913 P   0  0  1  0  0  0  0  0  0  0  0  0
  -43.9463   62.4918   70.8857 C   0  0  0  0  0  0  0  0  0  0  0  0
  -42.7949   62.0184   71.6258 O   0  0  0  0  0  0  0  0  0  0  0  0
  -42.5582   59.2940   73.6092 C   0  0  0  0  0  0  0  0  0  0  0  0
  -43.1291   63.2240   73.8342 O   0  5  0  0  0  0  0  0  0  0  0  0
  -43.2778   58.3064   74.4941 C   0  0  0  0  0  0  0  0  0  0  0  0
  -42.9715   60.6502   73.9301 O   0  0  0  0  0  0  0  0  0  0  0  0
  -41.6228   58.3360   76.3347 C   0  0  0  0  0  0  0  0  0  0  0  0
  -40.9786   62.1763   73.3465 O   0  0  0  0  0  0  0  0  0  0  0  0
  -43.8335   57.3856   76.6906 C   0  0  0  0  0  0  0  0  0  0  0  0
  -43.3499   60.5720   67.6688 O   0  0  0  0  0  0  0  0  0  0  0  0
  -43.5658   59.8031   76.4522 C   0  0  0  0  0  0  0  0  0  0  0  0
  -41.5786   61.8922   67.2537 O   0  0  0  0  0  0  0  0  0  0  0  0
  -43.5722   60.7786   69.0811 C   0  0  0  0  0  0  0  0  0  0  0  0
  -42.1287   60.8209   67.1868 C   0  0  0  0  0  0  0  0  0  0  0  0
  -41.5470   59.5850   66.5720 C   0  0  0  0  0  0  0  0  0  0  0  0
  -42.4780   58.3810   66.6510 C   0  0  0  0  0  0  0  0  0  0  0  0
  -43.8050   58.5690   65.9360 C   0  0  0  0  0  0  0  0  0  0  0  0
  -43.6578   58.8291   64.4471 C   0  0  0  0  0  0  0  0  0  0  0  0
  -42.9740   57.6892   63.7118 C   0  0  0  0  0  0  0  0  0  0  0  0
  -42.8204   57.9723   62.2340 C   0  0  0  0  0  0  0  0  0  0  0  0
  -41.9877   59.1947   61.9049 C   0  0  0  0  0  0  0  0  0  0  0  0
  -41.8617   59.4662   60.4549 C   0  0  0  0  0  0  0  0  0  0  0  0
  -42.6664   60.2194   59.7339 C   0  0  0  0  0  0  0  0  0  0  0  0
  -43.8498   60.9945   60.2149 C   0  0  0  0  0  0  0  0  0  0  0  0
  -45.1120   60.1346   60.1310 C   0  0  0  0  0  0  0  0  0  0  0  0
  -45.4623   59.6246   58.7408 C   0  0  0  0  0  0  0  0  0  0  0  0
  -44.4070   58.7336   58.0967 C   0  0  0  0  0  0  0  0  0  0  0  0
  -44.1186   57.4617   58.8874 C   0  0  0  0  0  0  0  0  0  0  0  0
  -43.0541   56.5773   58.2577 C   0  0  0  0  0  0  0  0  0  0  0  0
  -41.6824   57.2172   58.1051 C   0  0  0  0  0  0  0  0  0  0  0  0
  -40.6842   56.3025   57.4642 C   0  0  0  0  0  0  0  0  0  0  0  0
  -42.9327   62.7612   69.0630 H   0  0  0  0  0  0  0  0  0  0  0  0
  -45.7483   62.2684   69.0288 H   0  0  0  0  0  0  0  0  0  0  0  0
  -44.8187   61.9840   71.2405 H   0  0  0  0  0  0  0  0  0  0  0  0
  -44.0274   63.5479   71.0371 H   0  0  0  0  0  0  0  0  0  0  0  0
  -42.7910   59.0865   72.5857 H   0  0  0  0  0  0  0  0  0  0  0  0
  -41.5042   59.2032   73.7700 H   0  0  0  0  0  0  0  0  0  0  0  0
  -44.3258   58.3985   74.2988 H   0  0  0  0  0  0  0  0  0  0  0  0
  -42.8623   57.3514   74.2489 H   0  0  0  0  0  0  0  0  0  0  0  0
  -41.2602   57.3833   76.0093 H   0  0  0  0  0  0  0  0  0  0  0  0
  -41.4998   58.4215   77.3942 H   0  0  0  0  0  0  0  0  0  0  0  0
  -41.0712   59.1129   75.8478 H   0  0  0  0  0  0  0  0  0  0  0  0
  -40.6911   62.9899   72.9034 H   0  0  0  0  0  0  0  0  0  0  0  0
  -43.4834   56.4292   76.3625 H   0  0  0  0  0  0  0  0  0  0  0  0
  -44.8751   57.4807   76.4650 H   0  0  0  0  0  0  0  0  0  0  0  0
  -43.6877   57.4756   77.7468 H   0  0  0  0  0  0  0  0  0  0  0  0
  -43.0214   60.5760   75.9510 H   0  0  0  0  0  0  0  0  0  0  0  0
  -43.4201   59.8918   77.5085 H   0  0  0  0  0  0  0  0  0  0  0  0
  -44.6075   59.8969   76.2267 H   0  0  0  0  0  0  0  0  0  0  0  0
  -44.4315   60.2170   69.3829 H   0  0  0  0  0  0  0  0  0  0  0  0
  -42.6987   60.4548   69.6075 H   0  0  0  0  0  0  0  0  0  0  0  0
  -40.6379   59.3462   67.0832 H   0  0  0  0  0  0  0  0  0  0  0  0
  -41.3821   59.7924   65.5353 H   0  0  0  0  0  0  0  0  0  0  0  0
  -42.6787   58.1797   67.6825 H   0  0  0  0  0  0  0  0  0  0  0  0
  -41.9769   57.5734   66.1596 H   0  0  0  0  0  0  0  0  0  0  0  0
  -44.3126   59.4014   66.3769 H   0  0  0  0  0  0  0  0  0  0  0  0
  -44.3534   57.6566   66.0440 H   0  0  0  0  0  0  0  0  0  0  0  0
  -43.0787   59.7186   64.3117 H   0  0  0  0  0  0  0  0  0  0  0  0
  -44.6423   58.9284   64.0400 H   0  0  0  0  0  0  0  0  0  0  0  0
  -43.5582   56.8011   63.8335 H   0  0  0  0  0  0  0  0  0  0  0  0
  -41.9948   57.5716   64.1269 H   0  0  0  0  0  0  0  0  0  0  0  0
  -43.7965   58.1127   61.8187 H   0  0  0  0  0  0  0  0  0  0  0  0
  -42.3019   57.1336   61.8187 H   0  0  0  0  0  0  0  0  0  0  0  0
  -41.0065   59.0512   62.3067 H   0  0  0  0  0  0  0  0  0  0  0  0
  -42.4905   60.0360   62.3344 H   0  0  0  0  0  0  0  0  0  0  0  0
  -41.0694   59.0239   59.9633 H   0  0  0  0  0  0  0  0  0  0  0  0
  -42.4563   60.2811   58.7254 H   0  0  0  0  0  0  0  0  0  0  0  0
  -43.9738   61.8652   59.6055 H   0  0  0  0  0  0  0  0  0  0  0  0
  -43.6894   61.2820   61.2330 H   0  0  0  0  0  0  0  0  0  0  0  0
  -45.9346   60.7202   60.4849 H   0  0  0  0  0  0  0  0  0  0  0  0
  -44.9169   59.2654   60.7237 H   0  0  0  0  0  0  0  0  0  0  0  0
  -45.6143   60.4717   58.1050 H   0  0  0  0  0  0  0  0  0  0  0  0
  -46.3359   59.0177   58.8563 H   0  0  0  0  0  0  0  0  0  0  0  0
  -43.4985   59.2923   58.0112 H   0  0  0  0  0  0  0  0  0  0  0  0
  -44.7895   58.4316   57.1441 H   0  0  0  0  0  0  0  0  0  0  0  0
  -45.0249   56.8979   58.9623 H   0  0  0  0  0  0  0  0  0  0  0  0
  -43.7463   57.7660   59.8433 H   0  0  0  0  0  0  0  0  0  0  0  0
  -43.3954   56.2914   57.2847 H   0  0  0  0  0  0  0  0  0  0  0  0
  -42.9224   55.7523   58.9262 H   0  0  0  0  0  0  0  0  0  0  0  0
  -41.3225   57.4903   59.0750 H   0  0  0  0  0  0  0  0  0  0  0  0
  -41.7934   58.0701   57.4686 H   0  0  0  0  0  0  0  0  0  0  0  0
  -40.5492   55.4361   58.0774 H   0  0  0  0  0  0  0  0  0  0  0  0
  -39.7499   56.8129   57.3574 H   0  0  0  0  0  0  0  0  0  0  0  0
  -41.0404   56.0052   56.5001 H   0  0  0  0  0  0  0  0  0  0  0  0
  1  9  1  0  0  0  0
  1 11  1  0  0  0  0
  1 13  1  0  0  0  0
  1 15  1  0  0  0  0
  2  3  1  0  0  0  0
  2  5  1  0  0  0  0
  2 17  1  0  0  0  0
  2 36  1  6  0  0  0
  3 37  1  0  0  0  0
  4  6  1  0  0  0  0
  4  8  2  1  0  0  0
  4 10  1  0  0  0  0
  4 12  1  0  0  0  0
  5  6  1  0  0  0  0
  5 38  1  0  0  0  0
  5 39  1  0  0  0  0
  7  9  1  0  0  0  0
  7 10  1  0  0  0  0
  7 40  1  0  0  0  0
  7 41  1  0  0  0  0
  9 42  1  0  0  0  0
  9 43  1  0  0  0  0
 11 44  1  0  0  0  0
 11 45  1  0  0  0  0
 11 46  1  0  0  0  0
 12 47  1  0  0  0  0
 13 48  1  0  0  0  0
 13 49  1  0  0  0  0
 13 50  1  0  0  0  0
 14 17  1  0  0  0  0
 14 18  1  0  0  0  0
 15 51  1  0  0  0  0
 15 52  1  0  0  0  0
 15 53  1  0  0  0  0
 16 18  2  0  0  0  0
 17 54  1  0  0  0  0
 17 55  1  0  0  0  0
 18 19  1  0  0  0  0
 19 20  1  0  0  0  0
 19 56  1  0  0  0  0
 19 57  1  0  0  0  0
 20 21  1  0  0  0  0
 20 58  1  0  0  0  0
 20 59  1  0  0  0  0
 21 22  1  0  0  0  0
 21 60  1  0  0  0  0
 21 61  1  0  0  0  0
 22 23  1  0  0  0  0
 22 62  1  0  0  0  0
 22 63  1  0  0  0  0
 23 24  1  0  0  0  0
 23 64  1  0  0  0  0
 23 65  1  0  0  0  0
 24 25  1  0  0  0  0
 24 66  1  0  0  0  0
 24 67  1  0  0  0  0
 25 26  1  0  0  0  0
 25 68  1  0  0  0  0
 25 69  1  0  0  0  0
 26 27  2  0  0  0  0
 26 70  1  0  0  0  0
 27 28  1  0  0  0  0
 27 71  1  0  0  0  0
 28 29  1  0  0  0  0
 28 72  1  0  0  0  0
 28 73  1  0  0  0  0
 29 30  1  0  0  0  0
 29 74  1  0  0  0  0
 29 75  1  0  0  0  0
 30 31  1  0  0  0  0
 30 76  1  0  0  0  0
 30 77  1  0  0  0  0
 31 32  1  0  0  0  0
 31 78  1  0  0  0  0
 31 79  1  0  0  0  0
 32 33  1  0  0  0  0
 32 80  1  0  0  0  0
 32 81  1  0  0  0  0
 33 34  1  0  0  0  0
 33 82  1  0  0  0  0
 33 83  1  0  0  0  0
 34 35  1  0  0  0  0
 34 84  1  0  0  0  0
 34 85  1  0  0  0  0
 35 86  1  0  0  0  0
 35 87  1  0  0  0  0
 35 88  1  0  0  0  0
M  CHG  1   8  -1
M  END
$$$$