/media/chris/experiments/cd1a-new-docking/inputs/ligands/4x6e_ligand.pdb
 OpenBabel07012320273D

 88 87  0  0  1  0  0  0  0  0999 V2000
  -39.8861   61.5079   63.2064 N   0  0  0  0  0  4  0  0  0  0  0  0
  -39.1270   57.1462   65.6942 C   0  0  1  0  0  0  0  0  0  0  0  0
  -40.1770   56.7678   66.5946 O   0  0  0  0  0  0  0  0  0  0  0  0
  -38.7493   58.1314   61.8032 P   0  0  1  0  0  0  0  0  0  0  0  0
  -39.7060   57.3877   64.3199 C   0  0  0  0  0  0  0  0  0  0  0  0
  -38.6842   57.7582   63.3628 O   0  0  0  0  0  0  0  0  0  0  0  0
  -38.9549   60.7435   60.9326 C   0  0  0  0  0  0  0  0  0  0  0  0
  -40.2067   58.0475   61.3526 O   0  5  0  0  0  0  0  0  0  0  0  0
  -40.1603   61.0614   61.7822 C   0  0  0  0  0  0  0  0  0  0  0  0
  -38.1954   59.6549   61.5252 O   0  0  0  0  0  0  0  0  0  0  0  0
  -39.0743   62.7633   63.2147 C   0  0  0  0  0  0  0  0  0  0  0  0
  -37.9639   57.1338   61.0441 O   0  0  0  0  0  0  0  0  0  0  0  0
  -39.1227   60.4314   63.9055 C   0  0  0  0  0  0  0  0  0  0  0  0
  -39.2251   59.4857   66.4098 O   0  0  0  0  0  0  0  0  0  0  0  0
  -41.1746   61.7588   63.9368 C   0  0  0  0  0  0  0  0  0  0  0  0
  -40.1085   59.1264   68.4453 O   0  0  0  0  0  0  0  0  0  0  0  0
  -38.3627   58.3421   66.2215 C   0  0  0  0  0  0  0  0  0  0  0  0
  -40.2402   59.3661   67.2706 C   0  0  0  0  0  0  0  0  0  0  0  0
  -41.5470   59.5850   66.5720 C   0  0  0  0  0  0  0  0  0  0  0  0
  -42.4780   58.3810   66.6510 C   0  0  0  0  0  0  0  0  0  0  0  0
  -43.8050   58.5690   65.9360 C   0  0  0  0  0  0  0  0  0  0  0  0
  -43.6578   58.8291   64.4471 C   0  0  0  0  0  0  0  0  0  0  0  0
  -44.9905   59.0322   63.7470 C   0  0  0  0  0  0  0  0  0  0  0  0
  -45.9012   57.8334   63.8917 C   0  0  0  0  0  0  0  0  0  0  0  0
  -45.3401   56.5393   63.3382 C   0  0  0  0  0  0  0  0  0  0  0  0
  -45.0161   56.5910   61.8944 C   0  0  0  0  0  0  0  0  0  0  0  0
  -44.0655   55.9103   61.2879 C   0  0  0  0  0  0  0  0  0  0  0  0
  -43.1365   54.9137   61.9013 C   0  0  0  0  0  0  0  0  0  0  0  0
  -43.7413   53.5111   61.8210 C   0  0  0  0  0  0  0  0  0  0  0  0
  -45.0839   53.3391   62.5162 C   0  0  0  0  0  0  0  0  0  0  0  0
  -45.0805   53.6460   64.0088 C   0  0  0  0  0  0  0  0  0  0  0  0
  -44.1143   52.7769   64.8072 C   0  0  0  0  0  0  0  0  0  0  0  0
  -44.1194   53.0675   66.2996 C   0  0  0  0  0  0  0  0  0  0  0  0
  -43.1560   52.2321   67.1293 C   0  0  0  0  0  0  0  0  0  0  0  0
  -43.2206   52.5535   68.5908 C   0  0  0  0  0  0  0  0  0  0  0  0
  -38.4172   56.3492   65.6171 H   0  0  0  0  0  0  0  0  0  0  0  0
  -40.8198   57.4909   66.6638 H   0  0  0  0  0  0  0  0  0  0  0  0
  -40.4257   58.1771   64.3811 H   0  0  0  0  0  0  0  0  0  0  0  0
  -40.1600   56.4781   63.9860 H   0  0  0  0  0  0  0  0  0  0  0  0
  -38.3329   61.6113   60.8629 H   0  0  0  0  0  0  0  0  0  0  0  0
  -39.2829   60.4497   59.9574 H   0  0  0  0  0  0  0  0  0  0  0  0
  -40.7041   61.8438   61.2953 H   0  0  0  0  0  0  0  0  0  0  0  0
  -40.6944   60.1386   61.8726 H   0  0  0  0  0  0  0  0  0  0  0  0
  -38.1533   62.5958   62.6965 H   0  0  0  0  0  0  0  0  0  0  0  0
  -38.8683   63.0481   64.2253 H   0  0  0  0  0  0  0  0  0  0  0  0
  -39.6204   63.5444   62.7282 H   0  0  0  0  0  0  0  0  0  0  0  0
  -38.3091   56.2454   61.2244 H   0  0  0  0  0  0  0  0  0  0  0  0
  -38.2044   60.2510   63.3868 H   0  0  0  0  0  0  0  0  0  0  0  0
  -39.7053   59.5341   63.9219 H   0  0  0  0  0  0  0  0  0  0  0  0
  -38.9114   60.7379   64.9086 H   0  0  0  0  0  0  0  0  0  0  0  0
  -41.7233   62.5298   63.4376 H   0  0  0  0  0  0  0  0  0  0  0  0
  -40.9621   62.0645   64.9400 H   0  0  0  0  0  0  0  0  0  0  0  0
  -41.7560   60.8607   63.9532 H   0  0  0  0  0  0  0  0  0  0  0  0
  -37.5944   58.5985   65.5223 H   0  0  0  0  0  0  0  0  0  0  0  0
  -37.9447   58.0792   67.1707 H   0  0  0  0  0  0  0  0  0  0  0  0
  -41.3508   59.7963   65.5416 H   0  0  0  0  0  0  0  0  0  0  0  0
  -42.0377   60.3996   67.0625 H   0  0  0  0  0  0  0  0  0  0  0  0
  -42.6787   58.1797   67.6825 H   0  0  0  0  0  0  0  0  0  0  0  0
  -41.9769   57.5734   66.1596 H   0  0  0  0  0  0  0  0  0  0  0  0
  -44.3126   59.4014   66.3769 H   0  0  0  0  0  0  0  0  0  0  0  0
  -44.3534   57.6566   66.0440 H   0  0  0  0  0  0  0  0  0  0  0  0
  -43.1625   57.9917   64.0018 H   0  0  0  0  0  0  0  0  0  0  0  0
  -43.0949   59.7319   64.3334 H   0  0  0  0  0  0  0  0  0  0  0  0
  -44.8102   59.2042   62.7064 H   0  0  0  0  0  0  0  0  0  0  0  0
  -45.4760   59.8700   64.2022 H   0  0  0  0  0  0  0  0  0  0  0  0
  -46.8157   58.0461   63.3786 H   0  0  0  0  0  0  0  0  0  0  0  0
  -46.0328   57.6799   64.9424 H   0  0  0  0  0  0  0  0  0  0  0  0
  -46.0630   55.7658   63.4931 H   0  0  0  0  0  0  0  0  0  0  0  0
  -44.4214   56.3548   63.8547 H   0  0  0  0  0  0  0  0  0  0  0  0
  -45.5885   57.2189   61.3086 H   0  0  0  0  0  0  0  0  0  0  0  0
  -43.9495   56.0847   60.2773 H   0  0  0  0  0  0  0  0  0  0  0  0
  -42.9708   55.1692   62.9270 H   0  0  0  0  0  0  0  0  0  0  0  0
  -42.2089   54.9257   61.3681 H   0  0  0  0  0  0  0  0  0  0  0  0
  -43.0491   52.8270   62.2658 H   0  0  0  0  0  0  0  0  0  0  0  0
  -43.9209   53.3261   60.7825 H   0  0  0  0  0  0  0  0  0  0  0  0
  -45.3972   52.3242   62.3867 H   0  0  0  0  0  0  0  0  0  0  0  0
  -45.7465   54.0490   62.0666 H   0  0  0  0  0  0  0  0  0  0  0  0
  -46.0686   53.4905   64.3887 H   0  0  0  0  0  0  0  0  0  0  0  0
  -44.7571   54.6598   64.1206 H   0  0  0  0  0  0  0  0  0  0  0  0
  -43.1250   52.9419   64.4345 H   0  0  0  0  0  0  0  0  0  0  0  0
  -44.4332   51.7628   64.6855 H   0  0  0  0  0  0  0  0  0  0  0  0
  -45.1091   52.8924   66.6668 H   0  0  0  0  0  0  0  0  0  0  0  0
  -43.7959   54.0820   66.4040 H   0  0  0  0  0  0  0  0  0  0  0  0
  -42.1601   52.4137   66.7828 H   0  0  0  0  0  0  0  0  0  0  0  0
  -43.4357   51.2059   67.0121 H   0  0  0  0  0  0  0  0  0  0  0  0
  -42.9457   53.5762   68.7435 H   0  0  0  0  0  0  0  0  0  0  0  0
  -42.5452   51.9189   69.1257 H   0  0  0  0  0  0  0  0  0  0  0  0
  -44.2169   52.3949   68.9472 H   0  0  0  0  0  0  0  0  0  0  0  0
  1  9  1  0  0  0  0
  1 11  1  0  0  0  0
  1 13  1  0  0  0  0
  1 15  1  0  0  0  0
  2  3  1  0  0  0  0
  2  5  1  0  0  0  0
  2 17  1  0  0  0  0
  2 36  1  6  0  0  0
  3 37  1  0  0  0  0
  4  6  1  0  0  0  0
  4  8  2  6  0  0  0
  4 10  1  0  0  0  0
  4 12  1  0  0  0  0
  5  6  1  0  0  0  0
  5 38  1  0  0  0  0
  5 39  1  0  0  0  0
  7  9  1  0  0  0  0
  7 10  1  0  0  0  0
  7 40  1  0  0  0  0
  7 41  1  0  0  0  0
  9 42  1  0  0  0  0
  9 43  1  0  0  0  0
 11 44  1  0  0  0  0
 11 45  1  0  0  0  0
 11 46  1  0  0  0  0
 12 47  1  0  0  0  0
 13 48  1  0  0  0  0
 13 49  1  0  0  0  0
 13 50  1  0  0  0  0
 14 17  1  0  0  0  0
 14 18  1  0  0  0  0
 15 51  1  0  0  0  0
 15 52  1  0  0  0  0
 15 53  1  0  0  0  0
 16 18  2  0  0  0  0
 17 54  1  0  0  0  0
 17 55  1  0  0  0  0
 18 19  1  0  0  0  0
 19 20  1  0  0  0  0
 19 56  1  0  0  0  0
 19 57  1  0  0  0  0
 20 21  1  0  0  0  0
 20 58  1  0  0  0  0
 20 59  1  0  0  0  0
 21 22  1  0  0  0  0
 21 60  1  0  0  0  0
 21 61  1  0  0  0  0
 22 23  1  0  0  0  0
 22 62  1  0  0  0  0
 22 63  1  0  0  0  0
 23 24  1  0  0  0  0
 23 64  1  0  0  0  0
 23 65  1  0  0  0  0
 24 25  1  0  0  0  0
 24 66  1  0  0  0  0
 24 67  1  0  0  0  0
 25 26  1  0  0  0  0
 25 68  1  0  0  0  0
 25 69  1  0  0  0  0
 26 27  2  0  0  0  0
 26 70  1  0  0  0  0
 27 28  1  0  0  0  0
 27 71  1  0  0  0  0
 28 29  1  0  0  0  0
 28 72  1  0  0  0  0
 28 73  1  0  0  0  0
 29 30  1  0  0  0  0
 29 74  1  0  0  0  0
 29 75  1  0  0  0  0
 30 31  1  0  0  0  0
 30 76  1  0  0  0  0
 30 77  1  0  0  0  0
 31 32  1  0  0  0  0
 31 78  1  0  0  0  0
 31 79  1  0  0  0  0
 32 33  1  0  0  0  0
 32 80  1  0  0  0  0
 32 81  1  0  0  0  0
 33 34  1  0  0  0  0
 33 82  1  0  0  0  0
 33 83  1  0  0  0  0
 34 35  1  0  0  0  0
 34 84  1  0  0  0  0
 34 85  1  0  0  0  0
 35 86  1  0  0  0  0
 35 87  1  0  0  0  0
 35 88  1  0  0  0  0
M  CHG  1   8  -1
M  END
$$$$