/media/chris/experiments/cd1a-new-docking/inputs/ligands/4x6e_ligand.pdb
 OpenBabel07012320273D

 88 87  0  0  1  0  0  0  0  0999 V2000
  -40.2149   65.2533   64.2237 N   0  0  0  0  0  4  0  0  0  0  0  0
  -37.9795   60.4021   68.8417 C   0  0  1  0  0  0  0  0  0  0  0  0
  -36.8177   60.2276   69.6639 O   0  0  0  0  0  0  0  0  0  0  0  0
  -36.4278   62.4685   66.7096 P   0  0  1  0  0  0  0  0  0  0  0  0
  -37.6405   60.0521   67.4117 C   0  0  0  0  0  0  0  0  0  0  0  0
  -36.5715   60.8806   66.8938 O   0  0  0  0  0  0  0  0  0  0  0  0
  -38.2576   63.9434   65.2604 C   0  0  0  0  0  0  0  0  0  0  0  0
  -35.5229   62.7297   65.5066 O   0  5  0  0  0  0  0  0  0  0  0  0
  -39.6743   64.4459   65.3893 C   0  0  0  0  0  0  0  0  0  0  0  0
  -37.8870   63.1775   66.4390 O   0  0  0  0  0  0  0  0  0  0  0  0
  -39.3729   66.4668   63.9919 C   0  0  0  0  0  0  0  0  0  0  0  0
  -35.7804   63.0288   67.9159 O   0  0  0  0  0  0  0  0  0  0  0  0
  -41.6081   65.6835   64.5465 C   0  0  0  0  0  0  0  0  0  0  0  0
  -40.3223   59.7546   68.5465 O   0  0  0  0  0  0  0  0  0  0  0  0
  -40.2275   64.4252   62.9704 C   0  0  0  0  0  0  0  0  0  0  0  0
  -39.2500   58.8962   66.7672 O   0  0  0  0  0  0  0  0  0  0  0  0
  -39.1486   59.6013   69.3747 C   0  0  0  0  0  0  0  0  0  0  0  0
  -40.2402   59.3661   67.2706 C   0  0  0  0  0  0  0  0  0  0  0  0
  -41.5470   59.5850   66.5720 C   0  0  0  0  0  0  0  0  0  0  0  0
  -42.4780   58.3810   66.6510 C   0  0  0  0  0  0  0  0  0  0  0  0
  -43.8050   58.5690   65.9360 C   0  0  0  0  0  0  0  0  0  0  0  0
  -44.7241   57.3648   66.0412 C   0  0  0  0  0  0  0  0  0  0  0  0
  -45.0954   57.0268   67.4749 C   0  0  0  0  0  0  0  0  0  0  0  0
  -45.8277   58.1599   68.1584 C   0  0  0  0  0  0  0  0  0  0  0  0
  -46.2114   57.8902   69.5993 C   0  0  0  0  0  0  0  0  0  0  0  0
  -46.9418   59.0031   70.2475 C   0  0  0  0  0  0  0  0  0  0  0  0
  -46.8144   60.2832   69.9650 C   0  0  0  0  0  0  0  0  0  0  0  0
  -45.9470   60.8938   68.9127 C   0  0  0  0  0  0  0  0  0  0  0  0
  -44.9387   61.8505   69.5512 C   0  0  0  0  0  0  0  0  0  0  0  0
  -43.9818   61.2174   70.5507 C   0  0  0  0  0  0  0  0  0  0  0  0
  -42.9921   62.1810   71.1943 C   0  0  0  0  0  0  0  0  0  0  0  0
  -42.0915   62.8909   70.1888 C   0  0  0  0  0  0  0  0  0  0  0  0
  -41.0905   63.8408   70.8271 C   0  0  0  0  0  0  0  0  0  0  0  0
  -41.6956   64.9645   71.6552 C   0  0  0  0  0  0  0  0  0  0  0  0
  -42.6121   65.8422   70.8595 C   0  0  0  0  0  0  0  0  0  0  0  0
  -38.2845   61.4274   68.8663 H   0  0  0  0  0  0  0  0  0  0  0  0
  -36.5420   59.2979   69.6410 H   0  0  0  0  0  0  0  0  0  0  0  0
  -38.5111   60.1912   66.8054 H   0  0  0  0  0  0  0  0  0  0  0  0
  -37.3132   59.0337   67.3874 H   0  0  0  0  0  0  0  0  0  0  0  0
  -37.5948   64.7771   65.1581 H   0  0  0  0  0  0  0  0  0  0  0  0
  -38.1879   63.3131   64.3986 H   0  0  0  0  0  0  0  0  0  0  0  0
  -40.3105   63.5953   65.5183 H   0  0  0  0  0  0  0  0  0  0  0  0
  -39.6609   65.1209   66.2194 H   0  0  0  0  0  0  0  0  0  0  0  0
  -39.3568   67.0646   64.8791 H   0  0  0  0  0  0  0  0  0  0  0  0
  -39.7837   67.0370   63.1850 H   0  0  0  0  0  0  0  0  0  0  0  0
  -38.3757   66.1672   63.7455 H   0  0  0  0  0  0  0  0  0  0  0  0
  -34.9235   62.5955   68.0537 H   0  0  0  0  0  0  0  0  0  0  0  0
  -41.6015   66.2736   65.4390 H   0  0  0  0  0  0  0  0  0  0  0  0
  -42.2228   64.8202   64.6942 H   0  0  0  0  0  0  0  0  0  0  0  0
  -41.9983   66.2649   63.7374 H   0  0  0  0  0  0  0  0  0  0  0  0
  -39.2301   64.1159   62.7373 H   0  0  0  0  0  0  0  0  0  0  0  0
  -40.6185   65.0074   62.1623 H   0  0  0  0  0  0  0  0  0  0  0  0
  -40.8430   63.5627   63.1191 H   0  0  0  0  0  0  0  0  0  0  0  0
  -39.3765   59.9370   70.3648 H   0  0  0  0  0  0  0  0  0  0  0  0
  -38.8728   58.5674   69.3748 H   0  0  0  0  0  0  0  0  0  0  0  0
  -41.3508   59.7963   65.5416 H   0  0  0  0  0  0  0  0  0  0  0  0
  -42.0377   60.3996   67.0625 H   0  0  0  0  0  0  0  0  0  0  0  0
  -42.6787   58.1797   67.6825 H   0  0  0  0  0  0  0  0  0  0  0  0
  -41.9769   57.5734   66.1596 H   0  0  0  0  0  0  0  0  0  0  0  0
  -43.6088   58.7562   64.9009 H   0  0  0  0  0  0  0  0  0  0  0  0
  -44.3043   59.3890   66.4084 H   0  0  0  0  0  0  0  0  0  0  0  0
  -44.2305   56.5199   65.6083 H   0  0  0  0  0  0  0  0  0  0  0  0
  -45.6292   57.6059   65.5239 H   0  0  0  0  0  0  0  0  0  0  0  0
  -44.2003   56.8156   68.0218 H   0  0  0  0  0  0  0  0  0  0  0  0
  -45.7484   56.1795   67.4537 H   0  0  0  0  0  0  0  0  0  0  0  0
  -46.7230   58.3584   67.6070 H   0  0  0  0  0  0  0  0  0  0  0  0
  -45.1511   58.9886   68.1767 H   0  0  0  0  0  0  0  0  0  0  0  0
  -45.3169   57.7053   70.1565 H   0  0  0  0  0  0  0  0  0  0  0  0
  -46.8733   57.0495   69.5907 H   0  0  0  0  0  0  0  0  0  0  0  0
  -47.6132   58.7524   70.9900 H   0  0  0  0  0  0  0  0  0  0  0  0
  -47.3758   60.9367   70.5331 H   0  0  0  0  0  0  0  0  0  0  0  0
  -46.5580   61.4343   68.2203 H   0  0  0  0  0  0  0  0  0  0  0  0
  -45.4171   60.1170   68.4020 H   0  0  0  0  0  0  0  0  0  0  0  0
  -45.4863   62.6172   70.0583 H   0  0  0  0  0  0  0  0  0  0  0  0
  -44.3300   62.2153   68.7503 H   0  0  0  0  0  0  0  0  0  0  0  0
  -43.4239   60.4593   70.0418 H   0  0  0  0  0  0  0  0  0  0  0  0
  -44.5886   60.8369   71.3457 H   0  0  0  0  0  0  0  0  0  0  0  0
  -42.3742   61.6293   71.8717 H   0  0  0  0  0  0  0  0  0  0  0  0
  -43.5656   62.9358   71.6904 H   0  0  0  0  0  0  0  0  0  0  0  0
  -42.7095   63.4517   69.5191 H   0  0  0  0  0  0  0  0  0  0  0  0
  -41.5266   62.1335   69.6865 H   0  0  0  0  0  0  0  0  0  0  0  0
  -40.5095   64.2829   70.0449 H   0  0  0  0  0  0  0  0  0  0  0  0
  -40.5148   63.2493   71.5079 H   0  0  0  0  0  0  0  0  0  0  0  0
  -40.9021   65.5654   72.0479 H   0  0  0  0  0  0  0  0  0  0  0  0
  -42.2753   64.5149   72.4342 H   0  0  0  0  0  0  0  0  0  0  0  0
  -42.0621   66.3088   70.0693 H   0  0  0  0  0  0  0  0  0  0  0  0
  -43.0282   66.5942   71.4969 H   0  0  0  0  0  0  0  0  0  0  0  0
  -43.4009   65.2505   70.4441 H   0  0  0  0  0  0  0  0  0  0  0  0
  1  9  1  0  0  0  0
  1 11  1  0  0  0  0
  1 13  1  0  0  0  0
  1 15  1  0  0  0  0
  2  3  1  0  0  0  0
  2  5  1  0  0  0  0
  2 17  1  0  0  0  0
  2 36  1  1  0  0  0
  3 37  1  0  0  0  0
  4  6  1  0  0  0  0
  4  8  2  6  0  0  0
  4 10  1  0  0  0  0
  4 12  1  0  0  0  0
  5  6  1  0  0  0  0
  5 38  1  0  0  0  0
  5 39  1  0  0  0  0
  7  9  1  0  0  0  0
  7 10  1  0  0  0  0
  7 40  1  0  0  0  0
  7 41  1  0  0  0  0
  9 42  1  0  0  0  0
  9 43  1  0  0  0  0
 11 44  1  0  0  0  0
 11 45  1  0  0  0  0
 11 46  1  0  0  0  0
 12 47  1  0  0  0  0
 13 48  1  0  0  0  0
 13 49  1  0  0  0  0
 13 50  1  0  0  0  0
 14 17  1  0  0  0  0
 14 18  1  0  0  0  0
 15 51  1  0  0  0  0
 15 52  1  0  0  0  0
 15 53  1  0  0  0  0
 16 18  2  0  0  0  0
 17 54  1  0  0  0  0
 17 55  1  0  0  0  0
 18 19  1  0  0  0  0
 19 20  1  0  0  0  0
 19 56  1  0  0  0  0
 19 57  1  0  0  0  0
 20 21  1  0  0  0  0
 20 58  1  0  0  0  0
 20 59  1  0  0  0  0
 21 22  1  0  0  0  0
 21 60  1  0  0  0  0
 21 61  1  0  0  0  0
 22 23  1  0  0  0  0
 22 62  1  0  0  0  0
 22 63  1  0  0  0  0
 23 24  1  0  0  0  0
 23 64  1  0  0  0  0
 23 65  1  0  0  0  0
 24 25  1  0  0  0  0
 24 66  1  0  0  0  0
 24 67  1  0  0  0  0
 25 26  1  0  0  0  0
 25 68  1  0  0  0  0
 25 69  1  0  0  0  0
 26 27  2  0  0  0  0
 26 70  1  0  0  0  0
 27 28  1  0  0  0  0
 27 71  1  0  0  0  0
 28 29  1  0  0  0  0
 28 72  1  0  0  0  0
 28 73  1  0  0  0  0
 29 30  1  0  0  0  0
 29 74  1  0  0  0  0
 29 75  1  0  0  0  0
 30 31  1  0  0  0  0
 30 76  1  0  0  0  0
 30 77  1  0  0  0  0
 31 32  1  0  0  0  0
 31 78  1  0  0  0  0
 31 79  1  0  0  0  0
 32 33  1  0  0  0  0
 32 80  1  0  0  0  0
 32 81  1  0  0  0  0
 33 34  1  0  0  0  0
 33 82  1  0  0  0  0
 33 83  1  0  0  0  0
 34 35  1  0  0  0  0
 34 84  1  0  0  0  0
 34 85  1  0  0  0  0
 35 86  1  0  0  0  0
 35 87  1  0  0  0  0
 35 88  1  0  0  0  0
M  CHG  1   8  -1
M  END
$$$$