/media/chris/experiments/cd1a-new-docking/inputs/ligands/4x6e_ligand.pdb
 OpenBabel07012320273D

 88 87  0  0  1  0  0  0  0  0999 V2000
  -36.5486   63.8937   69.4018 N   0  0  0  0  0  4  0  0  0  0  0  0
  -38.3519   60.0368   69.4239 C   0  0  1  0  0  0  0  0  0  0  0  0
  -37.8957   60.3743   68.1070 O   0  0  0  0  0  0  0  0  0  0  0  0
  -41.1374   62.9497   69.5215 P   0  0  1  0  0  0  0  0  0  0  0  0
  -38.9879   61.2497   70.0617 C   0  0  0  0  0  0  0  0  0  0  0  0
  -40.1305   61.7187   69.3055 O   0  0  0  0  0  0  0  0  0  0  0  0
  -38.9653   64.6057   69.9255 C   0  0  0  0  0  0  0  0  0  0  0  0
  -41.8186   62.7770   70.8780 O   0  5  0  0  0  0  0  0  0  0  0  0
  -38.0266   63.7862   69.0750 C   0  0  0  0  0  0  0  0  0  0  0  0
  -40.3406   64.3885   69.5079 O   0  0  0  0  0  0  0  0  0  0  0  0
  -36.2873   63.4387   70.8017 C   0  0  0  0  0  0  0  0  0  0  0  0
  -42.1728   62.9058   68.4659 O   0  0  0  0  0  0  0  0  0  0  0  0
  -36.1332   65.3221   69.2700 C   0  0  0  0  0  0  0  0  0  0  0  0
  -40.4418   59.0951   68.5635 O   0  0  0  0  0  0  0  0  0  0  0  0
  -35.7382   63.0508   68.4588 C   0  0  0  0  0  0  0  0  0  0  0  0
  -39.1537   59.4138   66.7492 O   0  0  0  0  0  0  0  0  0  0  0  0
  -39.2828   58.8433   69.3882 C   0  0  0  0  0  0  0  0  0  0  0  0
  -40.2402   59.3661   67.2706 C   0  0  0  0  0  0  0  0  0  0  0  0
  -41.5470   59.5850   66.5720 C   0  0  0  0  0  0  0  0  0  0  0  0
  -42.4780   58.3810   66.6510 C   0  0  0  0  0  0  0  0  0  0  0  0
  -43.8050   58.5690   65.9360 C   0  0  0  0  0  0  0  0  0  0  0  0
  -44.7241   57.3648   66.0412 C   0  0  0  0  0  0  0  0  0  0  0  0
  -44.1117   56.1003   65.4637 C   0  0  0  0  0  0  0  0  0  0  0  0
  -45.0468   54.9156   65.5614 C   0  0  0  0  0  0  0  0  0  0  0  0
  -44.4861   53.6177   65.0163 C   0  0  0  0  0  0  0  0  0  0  0  0
  -44.1065   53.6779   63.5864 C   0  0  0  0  0  0  0  0  0  0  0  0
  -43.1448   52.9873   63.0095 C   0  0  0  0  0  0  0  0  0  0  0  0
  -42.2563   51.9694   63.6475 C   0  0  0  0  0  0  0  0  0  0  0  0
  -40.7936   52.4024   63.5349 C   0  0  0  0  0  0  0  0  0  0  0  0
  -40.4507   53.7224   64.2098 C   0  0  0  0  0  0  0  0  0  0  0  0
  -40.6959   53.7599   65.7134 C   0  0  0  0  0  0  0  0  0  0  0  0
  -40.3573   55.1026   66.3526 C   0  0  0  0  0  0  0  0  0  0  0  0
  -40.5841   55.1400   67.8555 C   0  0  0  0  0  0  0  0  0  0  0  0
  -42.0083   54.8525   68.3067 C   0  0  0  0  0  0  0  0  0  0  0  0
  -42.4804   53.4896   67.9027 C   0  0  0  0  0  0  0  0  0  0  0  0
  -37.5179   59.7464   70.0280 H   0  0  0  0  0  0  0  0  0  0  0  0
  -38.6524   60.6374   67.5602 H   0  0  0  0  0  0  0  0  0  0  0  0
  -38.2619   62.0340   70.1143 H   0  0  0  0  0  0  0  0  0  0  0  0
  -39.3265   60.9727   71.0382 H   0  0  0  0  0  0  0  0  0  0  0  0
  -38.7236   65.6427   69.8200 H   0  0  0  0  0  0  0  0  0  0  0  0
  -38.8599   64.3079   70.9478 H   0  0  0  0  0  0  0  0  0  0  0  0
  -38.3083   62.7590   69.1771 H   0  0  0  0  0  0  0  0  0  0  0  0
  -38.1268   64.1781   68.0844 H   0  0  0  0  0  0  0  0  0  0  0  0
  -36.8601   64.0329   71.4827 H   0  0  0  0  0  0  0  0  0  0  0  0
  -35.2460   63.5464   71.0233 H   0  0  0  0  0  0  0  0  0  0  0  0
  -36.5687   62.4112   70.9012 H   0  0  0  0  0  0  0  0  0  0  0  0
  -42.6275   62.0494   68.4945 H   0  0  0  0  0  0  0  0  0  0  0  0
  -36.7093   65.9245   69.9410 H   0  0  0  0  0  0  0  0  0  0  0  0
  -36.2982   65.6503   68.2650 H   0  0  0  0  0  0  0  0  0  0  0  0
  -35.0946   65.4151   69.5096 H   0  0  0  0  0  0  0  0  0  0  0  0
  -36.0342   62.0268   68.5515 H   0  0  0  0  0  0  0  0  0  0  0  0
  -34.6997   63.1450   68.6989 H   0  0  0  0  0  0  0  0  0  0  0  0
  -35.9033   63.3802   67.4542 H   0  0  0  0  0  0  0  0  0  0  0  0
  -39.6066   58.6260   70.3846 H   0  0  0  0  0  0  0  0  0  0  0  0
  -38.7488   58.0158   68.9699 H   0  0  0  0  0  0  0  0  0  0  0  0
  -41.3508   59.7963   65.5416 H   0  0  0  0  0  0  0  0  0  0  0  0
  -42.0377   60.3996   67.0625 H   0  0  0  0  0  0  0  0  0  0  0  0
  -42.6787   58.1797   67.6825 H   0  0  0  0  0  0  0  0  0  0  0  0
  -41.9769   57.5734   66.1596 H   0  0  0  0  0  0  0  0  0  0  0  0
  -43.6088   58.7562   64.9009 H   0  0  0  0  0  0  0  0  0  0  0  0
  -44.3043   59.3890   66.4084 H   0  0  0  0  0  0  0  0  0  0  0  0
  -45.6287   57.5786   65.5112 H   0  0  0  0  0  0  0  0  0  0  0  0
  -44.9036   57.1882   67.0812 H   0  0  0  0  0  0  0  0  0  0  0  0
  -43.2140   55.8759   66.0011 H   0  0  0  0  0  0  0  0  0  0  0  0
  -43.9119   56.2761   64.4273 H   0  0  0  0  0  0  0  0  0  0  0  0
  -45.9374   55.1485   65.0161 H   0  0  0  0  0  0  0  0  0  0  0  0
  -45.2208   54.7541   66.6047 H   0  0  0  0  0  0  0  0  0  0  0  0
  -45.2270   52.8549   65.1357 H   0  0  0  0  0  0  0  0  0  0  0  0
  -43.5909   53.4129   65.5654 H   0  0  0  0  0  0  0  0  0  0  0  0
  -44.6459   54.3209   62.9859 H   0  0  0  0  0  0  0  0  0  0  0  0
  -42.9874   53.1694   62.0059 H   0  0  0  0  0  0  0  0  0  0  0  0
  -42.3855   51.0285   63.1546 H   0  0  0  0  0  0  0  0  0  0  0  0
  -42.5154   51.8779   64.6816 H   0  0  0  0  0  0  0  0  0  0  0  0
  -40.5545   52.4910   62.4957 H   0  0  0  0  0  0  0  0  0  0  0  0
  -40.2241   51.6536   64.0445 H   0  0  0  0  0  0  0  0  0  0  0  0
  -41.0431   54.4901   63.7577 H   0  0  0  0  0  0  0  0  0  0  0  0
  -39.3985   53.8626   64.0749 H   0  0  0  0  0  0  0  0  0  0  0  0
  -40.0937   53.0045   66.1736 H   0  0  0  0  0  0  0  0  0  0  0  0
  -41.7419   53.5941   65.8656 H   0  0  0  0  0  0  0  0  0  0  0  0
  -40.9683   55.8555   65.9001 H   0  0  0  0  0  0  0  0  0  0  0  0
  -39.3132   55.2713   66.1901 H   0  0  0  0  0  0  0  0  0  0  0  0
  -40.3172   56.1152   68.2057 H   0  0  0  0  0  0  0  0  0  0  0  0
  -39.9809   54.3567   68.2648 H   0  0  0  0  0  0  0  0  0  0  0  0
  -42.6587   55.5825   67.8722 H   0  0  0  0  0  0  0  0  0  0  0  0
  -42.0226   54.8949   69.3758 H   0  0  0  0  0  0  0  0  0  0  0  0
  -42.4781   53.4133   66.8354 H   0  0  0  0  0  0  0  0  0  0  0  0
  -43.4733   53.3329   68.2694 H   0  0  0  0  0  0  0  0  0  0  0  0
  -41.8270   52.7492   68.3146 H   0  0  0  0  0  0  0  0  0  0  0  0
  1  9  1  0  0  0  0
  1 11  1  0  0  0  0
  1 13  1  0  0  0  0
  1 15  1  0  0  0  0
  2  3  1  0  0  0  0
  2  5  1  0  0  0  0
  2 17  1  0  0  0  0
  2 36  1  1  0  0  0
  3 37  1  0  0  0  0
  4  6  1  0  0  0  0
  4  8  2  1  0  0  0
  4 10  1  0  0  0  0
  4 12  1  0  0  0  0
  5  6  1  0  0  0  0
  5 38  1  0  0  0  0
  5 39  1  0  0  0  0
  7  9  1  0  0  0  0
  7 10  1  0  0  0  0
  7 40  1  0  0  0  0
  7 41  1  0  0  0  0
  9 42  1  0  0  0  0
  9 43  1  0  0  0  0
 11 44  1  0  0  0  0
 11 45  1  0  0  0  0
 11 46  1  0  0  0  0
 12 47  1  0  0  0  0
 13 48  1  0  0  0  0
 13 49  1  0  0  0  0
 13 50  1  0  0  0  0
 14 17  1  0  0  0  0
 14 18  1  0  0  0  0
 15 51  1  0  0  0  0
 15 52  1  0  0  0  0
 15 53  1  0  0  0  0
 16 18  2  0  0  0  0
 17 54  1  0  0  0  0
 17 55  1  0  0  0  0
 18 19  1  0  0  0  0
 19 20  1  0  0  0  0
 19 56  1  0  0  0  0
 19 57  1  0  0  0  0
 20 21  1  0  0  0  0
 20 58  1  0  0  0  0
 20 59  1  0  0  0  0
 21 22  1  0  0  0  0
 21 60  1  0  0  0  0
 21 61  1  0  0  0  0
 22 23  1  0  0  0  0
 22 62  1  0  0  0  0
 22 63  1  0  0  0  0
 23 24  1  0  0  0  0
 23 64  1  0  0  0  0
 23 65  1  0  0  0  0
 24 25  1  0  0  0  0
 24 66  1  0  0  0  0
 24 67  1  0  0  0  0
 25 26  1  0  0  0  0
 25 68  1  0  0  0  0
 25 69  1  0  0  0  0
 26 27  2  0  0  0  0
 26 70  1  0  0  0  0
 27 28  1  0  0  0  0
 27 71  1  0  0  0  0
 28 29  1  0  0  0  0
 28 72  1  0  0  0  0
 28 73  1  0  0  0  0
 29 30  1  0  0  0  0
 29 74  1  0  0  0  0
 29 75  1  0  0  0  0
 30 31  1  0  0  0  0
 30 76  1  0  0  0  0
 30 77  1  0  0  0  0
 31 32  1  0  0  0  0
 31 78  1  0  0  0  0
 31 79  1  0  0  0  0
 32 33  1  0  0  0  0
 32 80  1  0  0  0  0
 32 81  1  0  0  0  0
 33 34  1  0  0  0  0
 33 82  1  0  0  0  0
 33 83  1  0  0  0  0
 34 35  1  0  0  0  0
 34 84  1  0  0  0  0
 34 85  1  0  0  0  0
 35 86  1  0  0  0  0
 35 87  1  0  0  0  0
 35 88  1  0  0  0  0
M  CHG  1   8  -1
M  END
$$$$