/media/chris/experiments/cd1a-new-docking/inputs/ligands/4x6e_ligand.pdb
 OpenBabel07012320273D

 88 87  0  0  1  0  0  0  0  0999 V2000
  -48.2391   63.6543   63.1517 N   0  0  0  0  0  4  0  0  0  0  0  0
  -45.5277   61.3614   66.8759 C   0  0  1  0  0  0  0  0  0  0  0  0
  -46.2094   60.2007   67.3703 O   0  0  0  0  0  0  0  0  0  0  0  0
  -46.4032   65.2131   66.0687 P   0  0  1  0  0  0  0  0  0  0  0  0
  -46.4899   62.5249   66.8224 C   0  0  0  0  0  0  0  0  0  0  0  0
  -45.8571   63.7238   66.3131 O   0  0  0  0  0  0  0  0  0  0  0  0
  -48.8624   64.0418   65.6180 C   0  0  0  0  0  0  0  0  0  0  0  0
  -45.6364   65.8157   64.8927 O   0  5  0  0  0  0  0  0  0  0  0  0
  -48.3415   63.1002   64.5606 C   0  0  0  0  0  0  0  0  0  0  0  0
  -48.0086   65.2144   65.7113 O   0  0  0  0  0  0  0  0  0  0  0  0
  -47.3052   64.8211   63.1142 C   0  0  0  0  0  0  0  0  0  0  0  0
  -46.1267   66.0231   67.2753 O   0  0  0  0  0  0  0  0  0  0  0  0
  -49.5951   64.1036   62.7158 C   0  0  0  0  0  0  0  0  0  0  0  0
  -43.3499   60.5720   67.6688 O   0  0  0  0  0  0  0  0  0  0  0  0
  -47.7366   62.6003   62.2066 C   0  0  0  0  0  0  0  0  0  0  0  0
  -41.5786   61.8922   67.2537 O   0  0  0  0  0  0  0  0  0  0  0  0
  -44.2962   61.6629   67.7033 C   0  0  0  0  0  0  0  0  0  0  0  0
  -42.1287   60.8209   67.1868 C   0  0  0  0  0  0  0  0  0  0  0  0
  -41.5470   59.5850   66.5720 C   0  0  0  0  0  0  0  0  0  0  0  0
  -42.4780   58.3810   66.6510 C   0  0  0  0  0  0  0  0  0  0  0  0
  -43.8050   58.5690   65.9360 C   0  0  0  0  0  0  0  0  0  0  0  0
  -43.6578   58.8291   64.4471 C   0  0  0  0  0  0  0  0  0  0  0  0
  -44.9905   59.0322   63.7470 C   0  0  0  0  0  0  0  0  0  0  0  0
  -45.7496   60.2198   64.2955 C   0  0  0  0  0  0  0  0  0  0  0  0
  -45.0364   61.5492   64.1547 C   0  0  0  0  0  0  0  0  0  0  0  0
  -44.7510   61.9354   62.7541 C   0  0  0  0  0  0  0  0  0  0  0  0
  -43.5596   62.1557   62.2376 C   0  0  0  0  0  0  0  0  0  0  0  0
  -42.2394   62.0283   62.9258 C   0  0  0  0  0  0  0  0  0  0  0  0
  -41.1072   62.3947   61.9649 C   0  0  0  0  0  0  0  0  0  0  0  0
  -39.7029   62.2891   62.5414 C   0  0  0  0  0  0  0  0  0  0  0  0
  -39.4395   63.1646   63.7606 C   0  0  0  0  0  0  0  0  0  0  0  0
  -39.6413   64.6532   63.4966 C   0  0  0  0  0  0  0  0  0  0  0  0
  -39.3633   65.5327   64.7053 C   0  0  0  0  0  0  0  0  0  0  0  0
  -39.5697   67.0240   64.4871 C   0  0  0  0  0  0  0  0  0  0  0  0
  -39.2639   67.8363   65.7078 C   0  0  0  0  0  0  0  0  0  0  0  0
  -45.1803   61.1756   65.8810 H   0  0  0  0  0  0  0  0  0  0  0  0
  -46.5240   60.3702   68.2721 H   0  0  0  0  0  0  0  0  0  0  0  0
  -46.8544   62.7184   67.8096 H   0  0  0  0  0  0  0  0  0  0  0  0
  -47.2897   62.2646   66.1610 H   0  0  0  0  0  0  0  0  0  0  0  0
  -48.8770   63.5392   66.5626 H   0  0  0  0  0  0  0  0  0  0  0  0
  -49.8520   64.3508   65.3532 H   0  0  0  0  0  0  0  0  0  0  0  0
  -47.3628   62.7863   64.8584 H   0  0  0  0  0  0  0  0  0  0  0  0
  -49.0627   62.3119   64.5032 H   0  0  0  0  0  0  0  0  0  0  0  0
  -47.6539   65.5787   63.7845 H   0  0  0  0  0  0  0  0  0  0  0  0
  -47.2661   65.2148   62.1201 H   0  0  0  0  0  0  0  0  0  0  0  0
  -46.3271   64.5047   63.4113 H   0  0  0  0  0  0  0  0  0  0  0  0
  -45.1756   66.0066   67.4649 H   0  0  0  0  0  0  0  0  0  0  0  0
  -49.9551   64.8545   63.3877 H   0  0  0  0  0  0  0  0  0  0  0  0
  -50.2657   63.2698   62.7203 H   0  0  0  0  0  0  0  0  0  0  0  0
  -49.5359   64.5084   61.7271 H   0  0  0  0  0  0  0  0  0  0  0  0
  -46.7650   62.2769   62.5171 H   0  0  0  0  0  0  0  0  0  0  0  0
  -47.6785   63.0060   61.2182 H   0  0  0  0  0  0  0  0  0  0  0  0
  -48.4082   61.7674   62.2114 H   0  0  0  0  0  0  0  0  0  0  0  0
  -44.5927   61.8330   68.7173 H   0  0  0  0  0  0  0  0  0  0  0  0
  -43.8218   62.5296   67.2925 H   0  0  0  0  0  0  0  0  0  0  0  0
  -40.6379   59.3462   67.0832 H   0  0  0  0  0  0  0  0  0  0  0  0
  -41.3821   59.7924   65.5353 H   0  0  0  0  0  0  0  0  0  0  0  0
  -42.6787   58.1797   67.6825 H   0  0  0  0  0  0  0  0  0  0  0  0
  -41.9769   57.5734   66.1596 H   0  0  0  0  0  0  0  0  0  0  0  0
  -44.3126   59.4014   66.3769 H   0  0  0  0  0  0  0  0  0  0  0  0
  -44.3534   57.6566   66.0440 H   0  0  0  0  0  0  0  0  0  0  0  0
  -43.1625   57.9917   64.0018 H   0  0  0  0  0  0  0  0  0  0  0  0
  -43.0949   59.7319   64.3334 H   0  0  0  0  0  0  0  0  0  0  0  0
  -45.5857   58.1527   63.8776 H   0  0  0  0  0  0  0  0  0  0  0  0
  -44.7924   59.2187   62.7122 H   0  0  0  0  0  0  0  0  0  0  0  0
  -45.9307   60.0476   65.3359 H   0  0  0  0  0  0  0  0  0  0  0  0
  -46.6472   60.2966   63.7181 H   0  0  0  0  0  0  0  0  0  0  0  0
  -44.1079   61.4903   64.6831 H   0  0  0  0  0  0  0  0  0  0  0  0
  -45.6916   62.2953   64.5536 H   0  0  0  0  0  0  0  0  0  0  0  0
  -45.5612   62.0418   62.1237 H   0  0  0  0  0  0  0  0  0  0  0  0
  -43.5352   62.4487   61.2484 H   0  0  0  0  0  0  0  0  0  0  0  0
  -42.1093   61.0193   63.2574 H   0  0  0  0  0  0  0  0  0  0  0  0
  -42.2161   62.6933   63.7637 H   0  0  0  0  0  0  0  0  0  0  0  0
  -41.2583   63.4049   61.6464 H   0  0  0  0  0  0  0  0  0  0  0  0
  -41.1536   61.6816   61.1685 H   0  0  0  0  0  0  0  0  0  0  0  0
  -39.0083   62.5674   61.7766 H   0  0  0  0  0  0  0  0  0  0  0  0
  -39.5900   61.2771   62.8702 H   0  0  0  0  0  0  0  0  0  0  0  0
  -38.4287   63.0107   64.0759 H   0  0  0  0  0  0  0  0  0  0  0  0
  -40.1470   62.8797   64.5110 H   0  0  0  0  0  0  0  0  0  0  0  0
  -40.6555   64.8077   63.1928 H   0  0  0  0  0  0  0  0  0  0  0  0
  -38.9401   64.9337   62.7385 H   0  0  0  0  0  0  0  0  0  0  0  0
  -38.3457   65.3794   64.9983 H   0  0  0  0  0  0  0  0  0  0  0  0
  -40.0733   65.2423   65.4513 H   0  0  0  0  0  0  0  0  0  0  0  0
  -40.5900   67.1914   64.2116 H   0  0  0  0  0  0  0  0  0  0  0  0
  -38.8950   67.3336   63.7164 H   0  0  0  0  0  0  0  0  0  0  0  0
  -39.9233   67.5507   66.5006 H   0  0  0  0  0  0  0  0  0  0  0  0
  -39.3989   68.8748   65.4883 H   0  0  0  0  0  0  0  0  0  0  0  0
  -38.2511   67.6636   66.0066 H   0  0  0  0  0  0  0  0  0  0  0  0
  1  9  1  0  0  0  0
  1 11  1  0  0  0  0
  1 13  1  0  0  0  0
  1 15  1  0  0  0  0
  2  3  1  0  0  0  0
  2  5  1  0  0  0  0
  2 17  1  0  0  0  0
  2 36  1  6  0  0  0
  3 37  1  0  0  0  0
  4  6  1  0  0  0  0
  4  8  2  6  0  0  0
  4 10  1  0  0  0  0
  4 12  1  0  0  0  0
  5  6  1  0  0  0  0
  5 38  1  0  0  0  0
  5 39  1  0  0  0  0
  7  9  1  0  0  0  0
  7 10  1  0  0  0  0
  7 40  1  0  0  0  0
  7 41  1  0  0  0  0
  9 42  1  0  0  0  0
  9 43  1  0  0  0  0
 11 44  1  0  0  0  0
 11 45  1  0  0  0  0
 11 46  1  0  0  0  0
 12 47  1  0  0  0  0
 13 48  1  0  0  0  0
 13 49  1  0  0  0  0
 13 50  1  0  0  0  0
 14 17  1  0  0  0  0
 14 18  1  0  0  0  0
 15 51  1  0  0  0  0
 15 52  1  0  0  0  0
 15 53  1  0  0  0  0
 16 18  2  0  0  0  0
 17 54  1  0  0  0  0
 17 55  1  0  0  0  0
 18 19  1  0  0  0  0
 19 20  1  0  0  0  0
 19 56  1  0  0  0  0
 19 57  1  0  0  0  0
 20 21  1  0  0  0  0
 20 58  1  0  0  0  0
 20 59  1  0  0  0  0
 21 22  1  0  0  0  0
 21 60  1  0  0  0  0
 21 61  1  0  0  0  0
 22 23  1  0  0  0  0
 22 62  1  0  0  0  0
 22 63  1  0  0  0  0
 23 24  1  0  0  0  0
 23 64  1  0  0  0  0
 23 65  1  0  0  0  0
 24 25  1  0  0  0  0
 24 66  1  0  0  0  0
 24 67  1  0  0  0  0
 25 26  1  0  0  0  0
 25 68  1  0  0  0  0
 25 69  1  0  0  0  0
 26 27  2  0  0  0  0
 26 70  1  0  0  0  0
 27 28  1  0  0  0  0
 27 71  1  0  0  0  0
 28 29  1  0  0  0  0
 28 72  1  0  0  0  0
 28 73  1  0  0  0  0
 29 30  1  0  0  0  0
 29 74  1  0  0  0  0
 29 75  1  0  0  0  0
 30 31  1  0  0  0  0
 30 76  1  0  0  0  0
 30 77  1  0  0  0  0
 31 32  1  0  0  0  0
 31 78  1  0  0  0  0
 31 79  1  0  0  0  0
 32 33  1  0  0  0  0
 32 80  1  0  0  0  0
 32 81  1  0  0  0  0
 33 34  1  0  0  0  0
 33 82  1  0  0  0  0
 33 83  1  0  0  0  0
 34 35  1  0  0  0  0
 34 84  1  0  0  0  0
 34 85  1  0  0  0  0
 35 86  1  0  0  0  0
 35 87  1  0  0  0  0
 35 88  1  0  0  0  0
M  CHG  1   8  -1
M  END
$$$$