/media/chris/experiments/cd1a-new-docking/inputs/ligands/4x6e_ligand.pdb
 OpenBabel07012320273D

 88 87  0  0  1  0  0  0  0  0999 V2000
  -37.3936   67.3526   66.4948 N   0  0  0  0  0  4  0  0  0  0  0  0
  -40.0603   61.6902   62.8284 C   0  0  1  0  0  0  0  0  0  0  0  0
  -41.1513   60.8697   62.3890 O   0  0  0  0  0  0  0  0  0  0  0  0
  -39.4426   65.5519   63.8076 P   0  0  1  0  0  0  0  0  0  0  0  0
  -40.5440   63.1083   63.0216 C   0  0  0  0  0  0  0  0  0  0  0  0
  -39.4762   63.9874   63.4508 O   0  0  0  0  0  0  0  0  0  0  0  0
  -38.9608   65.3117   66.5156 C   0  0  0  0  0  0  0  0  0  0  0  0
  -40.5165   66.2539   62.9782 O   0  5  0  0  0  0  0  0  0  0  0  0
  -37.5515   65.8444   66.4372 C   0  0  0  0  0  0  0  0  0  0  0  0
  -39.7499   65.8123   65.4022 O   0  0  0  0  0  0  0  0  0  0  0  0
  -37.9299   67.8865   67.7842 C   0  0  0  0  0  0  0  0  0  0  0  0
  -38.1215   66.0968   63.4252 O   0  0  0  0  0  0  0  0  0  0  0  0
  -38.1592   67.9563   65.3635 C   0  0  0  0  0  0  0  0  0  0  0  0
  -40.3646   61.0134   65.1616 O   0  0  0  0  0  0  0  0  0  0  0  0
  -35.9459   67.7354   66.3762 C   0  0  0  0  0  0  0  0  0  0  0  0
  -41.5829   59.4037   64.1731 O   0  0  0  0  0  0  0  0  0  0  0  0
  -39.4183   61.1199   64.0753 C   0  0  0  0  0  0  0  0  0  0  0  0
  -41.1924   59.9644   65.1670 C   0  0  0  0  0  0  0  0  0  0  0  0
  -41.5470   59.5850   66.5720 C   0  0  0  0  0  0  0  0  0  0  0  0
  -42.4780   58.3810   66.6510 C   0  0  0  0  0  0  0  0  0  0  0  0
  -43.8050   58.5690   65.9360 C   0  0  0  0  0  0  0  0  0  0  0  0
  -43.6578   58.8291   64.4471 C   0  0  0  0  0  0  0  0  0  0  0  0
  -42.9740   57.6892   63.7118 C   0  0  0  0  0  0  0  0  0  0  0  0
  -42.8204   57.9723   62.2340 C   0  0  0  0  0  0  0  0  0  0  0  0
  -41.9877   59.1947   61.9049 C   0  0  0  0  0  0  0  0  0  0  0  0
  -41.8617   59.4662   60.4549 C   0  0  0  0  0  0  0  0  0  0  0  0
  -42.6664   60.2194   59.7339 C   0  0  0  0  0  0  0  0  0  0  0  0
  -43.8498   60.9945   60.2149 C   0  0  0  0  0  0  0  0  0  0  0  0
  -43.6423   61.4248   61.6679 C   0  0  0  0  0  0  0  0  0  0  0  0
  -44.7893   62.2116   62.2851 C   0  0  0  0  0  0  0  0  0  0  0  0
  -44.5669   62.6506   63.7273 C   0  0  0  0  0  0  0  0  0  0  0  0
  -43.3610   63.5672   63.9060 C   0  0  0  0  0  0  0  0  0  0  0  0
  -43.4591   64.8675   63.1242 C   0  0  0  0  0  0  0  0  0  0  0  0
  -44.6373   65.7588   63.4874 C   0  0  0  0  0  0  0  0  0  0  0  0
  -44.6875   67.0142   62.6720 C   0  0  0  0  0  0  0  0  0  0  0  0
  -39.2969   61.7019   62.0787 H   0  0  0  0  0  0  0  0  0  0  0  0
  -41.8427   60.8596   63.0692 H   0  0  0  0  0  0  0  0  0  0  0  0
  -41.3156   63.1130   63.7629 H   0  0  0  0  0  0  0  0  0  0  0  0
  -40.9110   63.4652   62.0820 H   0  0  0  0  0  0  0  0  0  0  0  0
  -39.4072   65.6275   67.4353 H   0  0  0  0  0  0  0  0  0  0  0  0
  -38.9328   64.2430   66.4709 H   0  0  0  0  0  0  0  0  0  0  0  0
  -37.0007   65.4284   67.2547 H   0  0  0  0  0  0  0  0  0  0  0  0
  -37.1943   65.5591   65.4697 H   0  0  0  0  0  0  0  0  0  0  0  0
  -38.9616   67.6194   67.8793 H   0  0  0  0  0  0  0  0  0  0  0  0
  -37.8348   68.9522   67.7960 H   0  0  0  0  0  0  0  0  0  0  0  0
  -37.3770   67.4700   68.6002 H   0  0  0  0  0  0  0  0  0  0  0  0
  -37.9640   65.9310   62.4825 H   0  0  0  0  0  0  0  0  0  0  0  0
  -39.1909   67.6849   65.4460 H   0  0  0  0  0  0  0  0  0  0  0  0
  -37.7684   67.5948   64.4353 H   0  0  0  0  0  0  0  0  0  0  0  0
  -38.0668   69.0217   65.3987 H   0  0  0  0  0  0  0  0  0  0  0  0
  -35.3954   67.3038   67.1859 H   0  0  0  0  0  0  0  0  0  0  0  0
  -35.8547   68.8009   66.4108 H   0  0  0  0  0  0  0  0  0  0  0  0
  -35.5564   67.3740   65.4474 H   0  0  0  0  0  0  0  0  0  0  0  0
  -38.6156   61.7602   64.3760 H   0  0  0  0  0  0  0  0  0  0  0  0
  -39.0601   60.1378   63.8471 H   0  0  0  0  0  0  0  0  0  0  0  0
  -42.0288   60.4189   67.0383 H   0  0  0  0  0  0  0  0  0  0  0  0
  -40.6378   59.3175   67.0687 H   0  0  0  0  0  0  0  0  0  0  0  0
  -42.6787   58.1797   67.6825 H   0  0  0  0  0  0  0  0  0  0  0  0
  -41.9769   57.5734   66.1596 H   0  0  0  0  0  0  0  0  0  0  0  0
  -44.3126   59.4014   66.3769 H   0  0  0  0  0  0  0  0  0  0  0  0
  -44.3534   57.6566   66.0440 H   0  0  0  0  0  0  0  0  0  0  0  0
  -43.0787   59.7186   64.3117 H   0  0  0  0  0  0  0  0  0  0  0  0
  -44.6423   58.9284   64.0400 H   0  0  0  0  0  0  0  0  0  0  0  0
  -43.5582   56.8011   63.8335 H   0  0  0  0  0  0  0  0  0  0  0  0
  -41.9948   57.5716   64.1269 H   0  0  0  0  0  0  0  0  0  0  0  0
  -43.7965   58.1127   61.8187 H   0  0  0  0  0  0  0  0  0  0  0  0
  -42.3019   57.1336   61.8187 H   0  0  0  0  0  0  0  0  0  0  0  0
  -41.0065   59.0512   62.3067 H   0  0  0  0  0  0  0  0  0  0  0  0
  -42.4905   60.0360   62.3344 H   0  0  0  0  0  0  0  0  0  0  0  0
  -41.0694   59.0239   59.9633 H   0  0  0  0  0  0  0  0  0  0  0  0
  -42.4563   60.2811   58.7254 H   0  0  0  0  0  0  0  0  0  0  0  0
  -44.7245   60.3818   60.1489 H   0  0  0  0  0  0  0  0  0  0  0  0
  -43.9683   61.8660   59.6055 H   0  0  0  0  0  0  0  0  0  0  0  0
  -42.7638   62.0341   61.7097 H   0  0  0  0  0  0  0  0  0  0  0  0
  -43.5656   60.5209   62.2353 H   0  0  0  0  0  0  0  0  0  0  0  0
  -45.6658   61.5985   62.2562 H   0  0  0  0  0  0  0  0  0  0  0  0
  -44.8796   63.1094   61.7099 H   0  0  0  0  0  0  0  0  0  0  0  0
  -44.4204   61.7774   64.3282 H   0  0  0  0  0  0  0  0  0  0  0  0
  -45.4314   63.2071   64.0235 H   0  0  0  0  0  0  0  0  0  0  0  0
  -42.4871   63.0427   63.5805 H   0  0  0  0  0  0  0  0  0  0  0  0
  -43.3185   63.8287   64.9427 H   0  0  0  0  0  0  0  0  0  0  0  0
  -43.5376   64.6233   62.0854 H   0  0  0  0  0  0  0  0  0  0  0  0
  -42.5798   65.4262   63.3687 H   0  0  0  0  0  0  0  0  0  0  0  0
  -44.5589   66.0251   64.5208 H   0  0  0  0  0  0  0  0  0  0  0  0
  -45.5323   65.2079   63.2867 H   0  0  0  0  0  0  0  0  0  0  0  0
  -43.8038   67.5907   62.8499 H   0  0  0  0  0  0  0  0  0  0  0  0
  -45.5482   67.5859   62.9500 H   0  0  0  0  0  0  0  0  0  0  0  0
  -44.7464   66.7630   61.6336 H   0  0  0  0  0  0  0  0  0  0  0  0
  1  9  1  0  0  0  0
  1 11  1  0  0  0  0
  1 13  1  0  0  0  0
  1 15  1  0  0  0  0
  2  3  1  0  0  0  0
  2  5  1  0  0  0  0
  2 17  1  0  0  0  0
  2 36  1  6  0  0  0
  3 37  1  0  0  0  0
  4  6  1  0  0  0  0
  4  8  2  6  0  0  0
  4 10  1  0  0  0  0
  4 12  1  0  0  0  0
  5  6  1  0  0  0  0
  5 38  1  0  0  0  0
  5 39  1  0  0  0  0
  7  9  1  0  0  0  0
  7 10  1  0  0  0  0
  7 40  1  0  0  0  0
  7 41  1  0  0  0  0
  9 42  1  0  0  0  0
  9 43  1  0  0  0  0
 11 44  1  0  0  0  0
 11 45  1  0  0  0  0
 11 46  1  0  0  0  0
 12 47  1  0  0  0  0
 13 48  1  0  0  0  0
 13 49  1  0  0  0  0
 13 50  1  0  0  0  0
 14 17  1  0  0  0  0
 14 18  1  0  0  0  0
 15 51  1  0  0  0  0
 15 52  1  0  0  0  0
 15 53  1  0  0  0  0
 16 18  2  0  0  0  0
 17 54  1  0  0  0  0
 17 55  1  0  0  0  0
 18 19  1  0  0  0  0
 19 20  1  0  0  0  0
 19 56  1  0  0  0  0
 19 57  1  0  0  0  0
 20 21  1  0  0  0  0
 20 58  1  0  0  0  0
 20 59  1  0  0  0  0
 21 22  1  0  0  0  0
 21 60  1  0  0  0  0
 21 61  1  0  0  0  0
 22 23  1  0  0  0  0
 22 62  1  0  0  0  0
 22 63  1  0  0  0  0
 23 24  1  0  0  0  0
 23 64  1  0  0  0  0
 23 65  1  0  0  0  0
 24 25  1  0  0  0  0
 24 66  1  0  0  0  0
 24 67  1  0  0  0  0
 25 26  1  0  0  0  0
 25 68  1  0  0  0  0
 25 69  1  0  0  0  0
 26 27  2  0  0  0  0
 26 70  1  0  0  0  0
 27 28  1  0  0  0  0
 27 71  1  0  0  0  0
 28 29  1  0  0  0  0
 28 72  1  0  0  0  0
 28 73  1  0  0  0  0
 29 30  1  0  0  0  0
 29 74  1  0  0  0  0
 29 75  1  0  0  0  0
 30 31  1  0  0  0  0
 30 76  1  0  0  0  0
 30 77  1  0  0  0  0
 31 32  1  0  0  0  0
 31 78  1  0  0  0  0
 31 79  1  0  0  0  0
 32 33  1  0  0  0  0
 32 80  1  0  0  0  0
 32 81  1  0  0  0  0
 33 34  1  0  0  0  0
 33 82  1  0  0  0  0
 33 83  1  0  0  0  0
 34 35  1  0  0  0  0
 34 84  1  0  0  0  0
 34 85  1  0  0  0  0
 35 86  1  0  0  0  0
 35 87  1  0  0  0  0
 35 88  1  0  0  0  0
M  CHG  1   8  -1
M  END
$$$$