/media/chris/experiments/cd1a-new-docking/inputs/ligands/4x6e_ligand.pdb
 OpenBabel07012320273D

 88 87  0  0  1  0  0  0  0  0999 V2000
  -38.4774   51.0979   66.1790 N   0  0  0  0  0  4  0  0  0  0  0  0
  -38.3648   57.8711   64.7826 C   0  0  1  0  0  0  0  0  0  0  0  0
  -37.8927   58.9003   63.9026 O   0  0  0  0  0  0  0  0  0  0  0  0
  -39.3877   54.7646   65.5561 P   0  0  1  0  0  0  0  0  0  0  0  0
  -37.5421   56.6203   64.5803 C   0  0  0  0  0  0  0  0  0  0  0  0
  -37.9872   55.5392   65.4349 O   0  0  0  0  0  0  0  0  0  0  0  0
  -38.3015   52.6579   64.1402 C   0  0  0  0  0  0  0  0  0  0  0  0
  -40.5033   55.7307   65.1608 O   0  5  0  0  0  0  0  0  0  0  0  0
  -37.6304   52.0367   65.3401 C   0  0  0  0  0  0  0  0  0  0  0  0
  -39.4408   53.4573   64.5595 O   0  0  0  0  0  0  0  0  0  0  0  0
  -38.9401   49.9363   65.3594 C   0  0  0  0  0  0  0  0  0  0  0  0
  -39.5882   54.3660   66.9665 O   0  0  0  0  0  0  0  0  0  0  0  0
  -39.6699   51.8467   66.6765 C   0  0  0  0  0  0  0  0  0  0  0  0
  -39.2251   59.4857   66.4098 O   0  0  0  0  0  0  0  0  0  0  0  0
  -37.6898   50.5822   67.3496 C   0  0  0  0  0  0  0  0  0  0  0  0
  -40.1085   59.1264   68.4453 O   0  0  0  0  0  0  0  0  0  0  0  0
  -38.3627   58.3421   66.2215 C   0  0  0  0  0  0  0  0  0  0  0  0
  -40.2402   59.3661   67.2706 C   0  0  0  0  0  0  0  0  0  0  0  0
  -41.5470   59.5850   66.5720 C   0  0  0  0  0  0  0  0  0  0  0  0
  -42.4780   58.3810   66.6510 C   0  0  0  0  0  0  0  0  0  0  0  0
  -43.8050   58.5690   65.9360 C   0  0  0  0  0  0  0  0  0  0  0  0
  -44.7241   57.3648   66.0412 C   0  0  0  0  0  0  0  0  0  0  0  0
  -46.0403   57.5587   65.3081 C   0  0  0  0  0  0  0  0  0  0  0  0
  -46.9497   56.3572   65.4376 C   0  0  0  0  0  0  0  0  0  0  0  0
  -46.3705   55.0622   64.9050 C   0  0  0  0  0  0  0  0  0  0  0  0
  -46.0120   55.1072   63.4692 C   0  0  0  0  0  0  0  0  0  0  0  0
  -45.1327   55.9155   62.9142 C   0  0  0  0  0  0  0  0  0  0  0  0
  -44.2778   56.9295   63.6024 C   0  0  0  0  0  0  0  0  0  0  0  0
  -42.9479   56.3002   64.0209 C   0  0  0  0  0  0  0  0  0  0  0  0
  -42.0974   55.7558   62.8826 C   0  0  0  0  0  0  0  0  0  0  0  0
  -42.7620   54.6711   62.0436 C   0  0  0  0  0  0  0  0  0  0  0  0
  -43.1683   53.4413   62.8490 C   0  0  0  0  0  0  0  0  0  0  0  0
  -43.8166   52.3489   62.0134 C   0  0  0  0  0  0  0  0  0  0  0  0
  -44.2517   51.1112   62.7837 C   0  0  0  0  0  0  0  0  0  0  0  0
  -43.1148   50.4383   63.4895 C   0  0  0  0  0  0  0  0  0  0  0  0
  -39.3821   57.6377   64.5468 H   0  0  0  0  0  0  0  0  0  0  0  0
  -36.9705   59.1111   64.1172 H   0  0  0  0  0  0  0  0  0  0  0  0
  -36.5187   56.8392   64.8035 H   0  0  0  0  0  0  0  0  0  0  0  0
  -37.6559   56.3084   63.5632 H   0  0  0  0  0  0  0  0  0  0  0  0
  -38.6363   51.8834   63.4822 H   0  0  0  0  0  0  0  0  0  0  0  0
  -37.5997   53.2884   63.6353 H   0  0  0  0  0  0  0  0  0  0  0  0
  -36.7834   51.4848   64.9895 H   0  0  0  0  0  0  0  0  0  0  0  0
  -37.3908   52.8555   65.9860 H   0  0  0  0  0  0  0  0  0  0  0  0
  -39.5028   50.2923   64.5219 H   0  0  0  0  0  0  0  0  0  0  0  0
  -39.5568   49.2999   65.9590 H   0  0  0  0  0  0  0  0  0  0  0  0
  -38.0917   49.3853   65.0108 H   0  0  0  0  0  0  0  0  0  0  0  0
  -39.5527   55.1526   67.5330 H   0  0  0  0  0  0  0  0  0  0  0  0
  -40.2325   52.2150   65.8442 H   0  0  0  0  0  0  0  0  0  0  0  0
  -39.3482   52.6687   67.2812 H   0  0  0  0  0  0  0  0  0  0  0  0
  -40.2835   51.1930   67.2605 H   0  0  0  0  0  0  0  0  0  0  0  0
  -36.8347   50.0453   66.9955 H   0  0  0  0  0  0  0  0  0  0  0  0
  -38.3045   49.9292   67.9333 H   0  0  0  0  0  0  0  0  0  0  0  0
  -37.3691   51.4049   67.9540 H   0  0  0  0  0  0  0  0  0  0  0  0
  -37.3645   58.6113   66.4969 H   0  0  0  0  0  0  0  0  0  0  0  0
  -38.7273   57.5445   66.8344 H   0  0  0  0  0  0  0  0  0  0  0  0
  -41.3508   59.7963   65.5416 H   0  0  0  0  0  0  0  0  0  0  0  0
  -42.0377   60.3996   67.0625 H   0  0  0  0  0  0  0  0  0  0  0  0
  -42.6787   58.1797   67.6825 H   0  0  0  0  0  0  0  0  0  0  0  0
  -41.9769   57.5734   66.1596 H   0  0  0  0  0  0  0  0  0  0  0  0
  -43.6088   58.7562   64.9009 H   0  0  0  0  0  0  0  0  0  0  0  0
  -44.3043   59.3890   66.4084 H   0  0  0  0  0  0  0  0  0  0  0  0
  -44.9328   57.1840   67.0750 H   0  0  0  0  0  0  0  0  0  0  0  0
  -44.2219   56.5372   65.5852 H   0  0  0  0  0  0  0  0  0  0  0  0
  -45.8357   57.7257   64.2712 H   0  0  0  0  0  0  0  0  0  0  0  0
  -46.5398   58.3972   65.7467 H   0  0  0  0  0  0  0  0  0  0  0  0
  -47.8524   56.5635   64.9014 H   0  0  0  0  0  0  0  0  0  0  0  0
  -47.1060   56.2090   66.4857 H   0  0  0  0  0  0  0  0  0  0  0  0
  -47.0940   54.2868   65.0469 H   0  0  0  0  0  0  0  0  0  0  0  0
  -45.4638   54.8843   65.4446 H   0  0  0  0  0  0  0  0  0  0  0  0
  -46.4964   54.4432   62.8450 H   0  0  0  0  0  0  0  0  0  0  0  0
  -45.0219   55.8403   61.8909 H   0  0  0  0  0  0  0  0  0  0  0  0
  -44.7873   57.2905   64.4713 H   0  0  0  0  0  0  0  0  0  0  0  0
  -44.0854   57.7392   62.9299 H   0  0  0  0  0  0  0  0  0  0  0  0
  -43.1607   55.4925   64.6896 H   0  0  0  0  0  0  0  0  0  0  0  0
  -42.3761   57.0875   64.4661 H   0  0  0  0  0  0  0  0  0  0  0  0
  -41.2019   55.3482   63.3030 H   0  0  0  0  0  0  0  0  0  0  0  0
  -41.9204   56.5785   62.2217 H   0  0  0  0  0  0  0  0  0  0  0  0
  -42.0765   54.3652   61.2812 H   0  0  0  0  0  0  0  0  0  0  0  0
  -43.6586   55.0920   61.6387 H   0  0  0  0  0  0  0  0  0  0  0  0
  -43.8629   53.7462   63.6035 H   0  0  0  0  0  0  0  0  0  0  0  0
  -42.2716   53.0281   63.2615 H   0  0  0  0  0  0  0  0  0  0  0  0
  -43.1138   52.0431   61.2668 H   0  0  0  0  0  0  0  0  0  0  0  0
  -44.7114   52.7763   61.6115 H   0  0  0  0  0  0  0  0  0  0  0  0
  -44.6871   50.4162   62.0965 H   0  0  0  0  0  0  0  0  0  0  0  0
  -44.9532   51.4249   63.5284 H   0  0  0  0  0  0  0  0  0  0  0  0
  -42.3925   50.1111   62.7711 H   0  0  0  0  0  0  0  0  0  0  0  0
  -43.4829   49.5944   64.0348 H   0  0  0  0  0  0  0  0  0  0  0  0
  -42.6569   51.1285   64.1669 H   0  0  0  0  0  0  0  0  0  0  0  0
  1  9  1  0  0  0  0
  1 11  1  0  0  0  0
  1 13  1  0  0  0  0
  1 15  1  0  0  0  0
  2  3  1  0  0  0  0
  2  5  1  0  0  0  0
  2 17  1  0  0  0  0
  2 36  1  6  0  0  0
  3 37  1  0  0  0  0
  4  6  1  0  0  0  0
  4  8  2  6  0  0  0
  4 10  1  0  0  0  0
  4 12  1  0  0  0  0
  5  6  1  0  0  0  0
  5 38  1  0  0  0  0
  5 39  1  0  0  0  0
  7  9  1  0  0  0  0
  7 10  1  0  0  0  0
  7 40  1  0  0  0  0
  7 41  1  0  0  0  0
  9 42  1  0  0  0  0
  9 43  1  0  0  0  0
 11 44  1  0  0  0  0
 11 45  1  0  0  0  0
 11 46  1  0  0  0  0
 12 47  1  0  0  0  0
 13 48  1  0  0  0  0
 13 49  1  0  0  0  0
 13 50  1  0  0  0  0
 14 17  1  0  0  0  0
 14 18  1  0  0  0  0
 15 51  1  0  0  0  0
 15 52  1  0  0  0  0
 15 53  1  0  0  0  0
 16 18  2  0  0  0  0
 17 54  1  0  0  0  0
 17 55  1  0  0  0  0
 18 19  1  0  0  0  0
 19 20  1  0  0  0  0
 19 56  1  0  0  0  0
 19 57  1  0  0  0  0
 20 21  1  0  0  0  0
 20 58  1  0  0  0  0
 20 59  1  0  0  0  0
 21 22  1  0  0  0  0
 21 60  1  0  0  0  0
 21 61  1  0  0  0  0
 22 23  1  0  0  0  0
 22 62  1  0  0  0  0
 22 63  1  0  0  0  0
 23 24  1  0  0  0  0
 23 64  1  0  0  0  0
 23 65  1  0  0  0  0
 24 25  1  0  0  0  0
 24 66  1  0  0  0  0
 24 67  1  0  0  0  0
 25 26  1  0  0  0  0
 25 68  1  0  0  0  0
 25 69  1  0  0  0  0
 26 27  2  0  0  0  0
 26 70  1  0  0  0  0
 27 28  1  0  0  0  0
 27 71  1  0  0  0  0
 28 29  1  0  0  0  0
 28 72  1  0  0  0  0
 28 73  1  0  0  0  0
 29 30  1  0  0  0  0
 29 74  1  0  0  0  0
 29 75  1  0  0  0  0
 30 31  1  0  0  0  0
 30 76  1  0  0  0  0
 30 77  1  0  0  0  0
 31 32  1  0  0  0  0
 31 78  1  0  0  0  0
 31 79  1  0  0  0  0
 32 33  1  0  0  0  0
 32 80  1  0  0  0  0
 32 81  1  0  0  0  0
 33 34  1  0  0  0  0
 33 82  1  0  0  0  0
 33 83  1  0  0  0  0
 34 35  1  0  0  0  0
 34 84  1  0  0  0  0
 34 85  1  0  0  0  0
 35 86  1  0  0  0  0
 35 87  1  0  0  0  0
 35 88  1  0  0  0  0
M  CHG  1   8  -1
M  END
$$$$