/media/chris/experiments/cd1a-new-docking/inputs/ligands/4x6e_ligand.pdb
 OpenBabel07012320273D

 88 87  0  0  1  0  0  0  0  0999 V2000
  -44.9036   53.4386   71.9501 N   0  0  0  0  0  4  0  0  0  0  0  0
  -41.2663   58.9284   70.5413 C   0  0  1  0  0  0  0  0  0  0  0  0
  -42.3490   59.7223   70.0375 O   0  0  0  0  0  0  0  0  0  0  0  0
  -40.6560   55.1168   71.7043 P   0  0  1  0  0  0  0  0  0  0  0  0
  -41.7455   57.5148   70.7745 C   0  0  0  0  0  0  0  0  0  0  0  0
  -40.6937   56.6697   71.3008 O   0  0  0  0  0  0  0  0  0  0  0  0
  -42.4422   53.2492   72.6762 C   0  0  0  0  0  0  0  0  0  0  0  0
  -39.6449   54.9422   72.8364 O   0  5  0  0  0  0  0  0  0  0  0  0
  -43.9001   53.1545   73.0524 C   0  0  0  0  0  0  0  0  0  0  0  0
  -42.1268   54.5934   72.2219 O   0  0  0  0  0  0  0  0  0  0  0  0
  -44.7375   52.4658   70.8270 C   0  0  0  0  0  0  0  0  0  0  0  0
  -40.1945   54.3349   70.5365 O   0  0  0  0  0  0  0  0  0  0  0  0
  -44.6678   54.8202   71.4344 C   0  0  0  0  0  0  0  0  0  0  0  0
  -40.3930   58.5172   68.2912 O   0  0  0  0  0  0  0  0  0  0  0  0
  -46.3068   53.3367   72.4763 C   0  0  0  0  0  0  0  0  0  0  0  0
  -39.1895   59.8699   66.9591 O   0  0  0  0  0  0  0  0  0  0  0  0
  -40.0690   58.9914   69.6167 C   0  0  0  0  0  0  0  0  0  0  0  0
  -40.2402   59.3661   67.2706 C   0  0  0  0  0  0  0  0  0  0  0  0
  -41.5470   59.5850   66.5720 C   0  0  0  0  0  0  0  0  0  0  0  0
  -42.4780   58.3810   66.6510 C   0  0  0  0  0  0  0  0  0  0  0  0
  -43.8050   58.5690   65.9360 C   0  0  0  0  0  0  0  0  0  0  0  0
  -44.6170   59.7376   66.4663 C   0  0  0  0  0  0  0  0  0  0  0  0
  -43.9014   61.0697   66.3219 C   0  0  0  0  0  0  0  0  0  0  0  0
  -43.6005   61.4039   64.8778 C   0  0  0  0  0  0  0  0  0  0  0  0
  -44.8202   61.5257   63.9870 C   0  0  0  0  0  0  0  0  0  0  0  0
  -45.6454   60.2981   63.9229 C   0  0  0  0  0  0  0  0  0  0  0  0
  -45.2418   59.1125   63.5149 C   0  0  0  0  0  0  0  0  0  0  0  0
  -43.8679   58.7305   63.0688 C   0  0  0  0  0  0  0  0  0  0  0  0
  -43.8372   57.2564   62.6619 C   0  0  0  0  0  0  0  0  0  0  0  0
  -44.2299   56.2706   63.7526 C   0  0  0  0  0  0  0  0  0  0  0  0
  -45.6444   56.4388   64.2941 C   0  0  0  0  0  0  0  0  0  0  0  0
  -45.9967   55.4455   65.3966 C   0  0  0  0  0  0  0  0  0  0  0  0
  -47.4129   55.5981   65.9286 C   0  0  0  0  0  0  0  0  0  0  0  0
  -47.7422   56.9590   66.5234 C   0  0  0  0  0  0  0  0  0  0  0  0
  -46.8534   57.3192   67.6740 C   0  0  0  0  0  0  0  0  0  0  0  0
  -40.9391   59.3242   71.4801 H   0  0  0  0  0  0  0  0  0  0  0  0
  -42.6448   59.3628   69.1865 H   0  0  0  0  0  0  0  0  0  0  0  0
  -42.0853   57.1067   69.8455 H   0  0  0  0  0  0  0  0  0  0  0  0
  -42.5374   57.5466   71.4934 H   0  0  0  0  0  0  0  0  0  0  0  0
  -42.2339   52.5528   71.8909 H   0  0  0  0  0  0  0  0  0  0  0  0
  -41.8449   53.0217   73.5344 H   0  0  0  0  0  0  0  0  0  0  0  0
  -44.0803   52.1616   73.4080 H   0  0  0  0  0  0  0  0  0  0  0  0
  -44.0550   53.9225   73.7811 H   0  0  0  0  0  0  0  0  0  0  0  0
  -43.7404   52.5299   70.4441 H   0  0  0  0  0  0  0  0  0  0  0  0
  -45.4341   52.6974   70.0486 H   0  0  0  0  0  0  0  0  0  0  0  0
  -44.9192   51.4738   71.1847 H   0  0  0  0  0  0  0  0  0  0  0  0
  -39.3271   54.6618   70.2507 H   0  0  0  0  0  0  0  0  0  0  0  0
  -43.6686   54.8951   71.0589 H   0  0  0  0  0  0  0  0  0  0  0  0
  -44.8045   55.5252   72.2276 H   0  0  0  0  0  0  0  0  0  0  0  0
  -45.3613   55.0303   70.6471 H   0  0  0  0  0  0  0  0  0  0  0  0
  -46.4780   52.3474   72.8464 H   0  0  0  0  0  0  0  0  0  0  0  0
  -46.9994   53.5476   71.6885 H   0  0  0  0  0  0  0  0  0  0  0  0
  -46.4426   54.0425   73.2690 H   0  0  0  0  0  0  0  0  0  0  0  0
  -39.2863   58.3839   70.0208 H   0  0  0  0  0  0  0  0  0  0  0  0
  -39.7600   60.0129   69.5397 H   0  0  0  0  0  0  0  0  0  0  0  0
  -41.3508   59.7963   65.5416 H   0  0  0  0  0  0  0  0  0  0  0  0
  -42.0377   60.3996   67.0625 H   0  0  0  0  0  0  0  0  0  0  0  0
  -42.6787   58.1797   67.6825 H   0  0  0  0  0  0  0  0  0  0  0  0
  -41.9769   57.5734   66.1596 H   0  0  0  0  0  0  0  0  0  0  0  0
  -44.3819   57.6753   66.0516 H   0  0  0  0  0  0  0  0  0  0  0  0
  -43.5836   58.7785   64.9103 H   0  0  0  0  0  0  0  0  0  0  0  0
  -44.8195   59.5696   67.5034 H   0  0  0  0  0  0  0  0  0  0  0  0
  -45.5158   59.7920   65.8883 H   0  0  0  0  0  0  0  0  0  0  0  0
  -42.9802   61.0264   66.8645 H   0  0  0  0  0  0  0  0  0  0  0  0
  -44.5457   61.8318   66.7077 H   0  0  0  0  0  0  0  0  0  0  0  0
  -42.9741   60.6324   64.4810 H   0  0  0  0  0  0  0  0  0  0  0  0
  -43.1331   62.3663   64.8822 H   0  0  0  0  0  0  0  0  0  0  0  0
  -44.4910   61.7617   62.9966 H   0  0  0  0  0  0  0  0  0  0  0  0
  -45.4368   62.2909   64.4101 H   0  0  0  0  0  0  0  0  0  0  0  0
  -46.6285   60.3788   64.2261 H   0  0  0  0  0  0  0  0  0  0  0  0
  -45.9531   58.3649   63.5020 H   0  0  0  0  0  0  0  0  0  0  0  0
  -43.1782   58.8905   63.8711 H   0  0  0  0  0  0  0  0  0  0  0  0
  -43.5937   59.3315   62.2271 H   0  0  0  0  0  0  0  0  0  0  0  0
  -42.8419   57.0214   62.3471 H   0  0  0  0  0  0  0  0  0  0  0  0
  -44.5691   57.1483   61.8890 H   0  0  0  0  0  0  0  0  0  0  0  0
  -43.5464   56.3877   64.5675 H   0  0  0  0  0  0  0  0  0  0  0  0
  -44.1947   55.2995   63.3047 H   0  0  0  0  0  0  0  0  0  0  0  0
  -46.3339   56.3069   63.4866 H   0  0  0  0  0  0  0  0  0  0  0  0
  -45.7027   57.4176   64.7224 H   0  0  0  0  0  0  0  0  0  0  0  0
  -45.3141   55.5862   66.2085 H   0  0  0  0  0  0  0  0  0  0  0  0
  -45.9275   54.4671   64.9691 H   0  0  0  0  0  0  0  0  0  0  0  0
  -47.5612   54.8604   66.6893 H   0  0  0  0  0  0  0  0  0  0  0  0
  -48.0597   55.4804   65.0844 H   0  0  0  0  0  0  0  0  0  0  0  0
  -48.7561   56.9465   66.8653 H   0  0  0  0  0  0  0  0  0  0  0  0
  -47.5909   57.6909   65.7577 H   0  0  0  0  0  0  0  0  0  0  0  0
  -46.9807   56.6046   68.4603 H   0  0  0  0  0  0  0  0  0  0  0  0
  -47.1115   58.2937   68.0326 H   0  0  0  0  0  0  0  0  0  0  0  0
  -45.8333   57.3164   67.3512 H   0  0  0  0  0  0  0  0  0  0  0  0
  1  9  1  0  0  0  0
  1 11  1  0  0  0  0
  1 13  1  0  0  0  0
  1 15  1  0  0  0  0
  2  3  1  0  0  0  0
  2  5  1  0  0  0  0
  2 17  1  0  0  0  0
  2 36  1  1  0  0  0
  3 37  1  0  0  0  0
  4  6  1  0  0  0  0
  4  8  2  1  0  0  0
  4 10  1  0  0  0  0
  4 12  1  0  0  0  0
  5  6  1  0  0  0  0
  5 38  1  0  0  0  0
  5 39  1  0  0  0  0
  7  9  1  0  0  0  0
  7 10  1  0  0  0  0
  7 40  1  0  0  0  0
  7 41  1  0  0  0  0
  9 42  1  0  0  0  0
  9 43  1  0  0  0  0
 11 44  1  0  0  0  0
 11 45  1  0  0  0  0
 11 46  1  0  0  0  0
 12 47  1  0  0  0  0
 13 48  1  0  0  0  0
 13 49  1  0  0  0  0
 13 50  1  0  0  0  0
 14 17  1  0  0  0  0
 14 18  1  0  0  0  0
 15 51  1  0  0  0  0
 15 52  1  0  0  0  0
 15 53  1  0  0  0  0
 16 18  2  0  0  0  0
 17 54  1  0  0  0  0
 17 55  1  0  0  0  0
 18 19  1  0  0  0  0
 19 20  1  0  0  0  0
 19 56  1  0  0  0  0
 19 57  1  0  0  0  0
 20 21  1  0  0  0  0
 20 58  1  0  0  0  0
 20 59  1  0  0  0  0
 21 22  1  0  0  0  0
 21 60  1  0  0  0  0
 21 61  1  0  0  0  0
 22 23  1  0  0  0  0
 22 62  1  0  0  0  0
 22 63  1  0  0  0  0
 23 24  1  0  0  0  0
 23 64  1  0  0  0  0
 23 65  1  0  0  0  0
 24 25  1  0  0  0  0
 24 66  1  0  0  0  0
 24 67  1  0  0  0  0
 25 26  1  0  0  0  0
 25 68  1  0  0  0  0
 25 69  1  0  0  0  0
 26 27  2  0  0  0  0
 26 70  1  0  0  0  0
 27 28  1  0  0  0  0
 27 71  1  0  0  0  0
 28 29  1  0  0  0  0
 28 72  1  0  0  0  0
 28 73  1  0  0  0  0
 29 30  1  0  0  0  0
 29 74  1  0  0  0  0
 29 75  1  0  0  0  0
 30 31  1  0  0  0  0
 30 76  1  0  0  0  0
 30 77  1  0  0  0  0
 31 32  1  0  0  0  0
 31 78  1  0  0  0  0
 31 79  1  0  0  0  0
 32 33  1  0  0  0  0
 32 80  1  0  0  0  0
 32 81  1  0  0  0  0
 33 34  1  0  0  0  0
 33 82  1  0  0  0  0
 33 83  1  0  0  0  0
 34 35  1  0  0  0  0
 34 84  1  0  0  0  0
 34 85  1  0  0  0  0
 35 86  1  0  0  0  0
 35 87  1  0  0  0  0
 35 88  1  0  0  0  0
M  CHG  1   8  -1
M  END
$$$$