/media/chris/experiments/cd1a-new-docking/inputs/ligands/4x6c_ligand.pdb
 OpenBabel07012320263D

 88 87  0  0  1  0  0  0  0  0999 V2000
  -38.4651   57.2567   71.1202 N   0  0  0  0  0  4  0  0  0  0  0  0
  -42.3304   63.6022   67.4813 C   0  0  1  0  0  0  0  0  0  0  0  0
  -43.5674   63.0172   67.8884 O   0  0  0  0  0  0  0  0  0  0  0  0
  -40.1091   60.9269   69.2590 P   0  0  2  0  0  0  0  0  0  0  0  0
  -41.2499   63.1365   68.4269 C   0  0  0  0  0  0  0  0  0  0  0  0
  -41.1611   61.6994   68.3502 O   0  0  0  0  0  0  0  0  0  0  0  0
  -38.6181   58.7772   69.0534 C   0  0  0  0  0  0  0  0  0  0  0  0
  -38.9695   61.8412   69.4745 O   0  5  0  0  0  0  0  0  0  0  0  0
  -39.2887   58.2200   70.2885 C   0  0  0  0  0  0  0  0  0  0  0  0
  -39.5826   59.6695   68.4474 O   0  0  0  0  0  0  0  0  0  0  0  0
  -38.0534   56.0659   70.3157 C   0  0  0  0  0  0  0  0  0  0  0  0
  -40.8500   60.4129   70.4277 O   0  0  0  0  0  0  0  0  0  0  0  0
  -39.2722   56.7883   72.2883 C   0  0  0  0  0  0  0  0  0  0  0  0
  -42.0474   61.8525   65.8962 O   0  0  0  0  0  0  0  0  0  0  0  0
  -37.2341   57.9483   71.6159 C   0  0  0  0  0  0  0  0  0  0  0  0
  -40.1534   61.6365   67.0519 O   0  0  0  0  0  0  0  0  0  0  0  0
  -42.0818   63.2915   66.0232 C   0  0  0  0  0  0  0  0  0  0  0  0
  -40.9154   61.2318   66.2282 C   0  0  0  0  0  0  0  0  0  0  0  0
  -40.7200   59.9800   65.4370 C   0  0  0  0  0  0  0  0  0  0  0  0
  -42.0280   59.3300   65.0270 C   0  0  0  0  0  0  0  0  0  0  0  0
  -42.8960   58.9560   66.2090 C   0  0  0  0  0  0  0  0  0  0  0  0
  -44.2012   58.2902   65.8416 C   0  0  0  0  0  0  0  0  0  0  0  0
  -45.0623   57.9388   67.0279 C   0  0  0  0  0  0  0  0  0  0  0  0
  -45.4546   59.1497   67.8311 C   0  0  0  0  0  0  0  0  0  0  0  0
  -46.2524   60.1824   67.0913 C   0  0  0  0  0  0  0  0  0  0  0  0
  -45.5559   60.7251   65.9160 C   0  0  0  0  0  0  0  0  0  0  0  0
  -45.5936   60.2835   64.6782 C   0  0  0  0  0  0  0  0  0  0  0  0
  -46.3671   59.1357   64.1409 C   0  0  0  0  0  0  0  0  0  0  0  0
  -47.8720   59.2383   64.2832 C   0  0  0  0  0  0  0  0  0  0  0  0
  -48.5911   58.0367   63.7344 C   0  0  0  0  0  0  0  0  0  0  0  0
  -48.3433   57.7684   62.2721 C   0  0  0  0  0  0  0  0  0  0  0  0
  -46.8846   57.5076   61.9676 C   0  0  0  0  0  0  0  0  0  0  0  0
  -46.2941   56.3169   62.6699 C   0  0  0  0  0  0  0  0  0  0  0  0
  -46.9635   55.0473   62.3247 C   0  0  0  0  0  0  0  0  0  0  0  0
  -46.8875   54.7193   60.9024 C   0  0  0  0  0  0  0  0  0  0  0  0
  -42.3464   64.6703   67.5426 H   0  0  0  0  0  0  0  0  0  0  0  0
  -43.5075   62.0517   67.8169 H   0  0  0  0  0  0  0  0  0  0  0  0
  -41.4943   63.4300   69.4264 H   0  0  0  0  0  0  0  0  0  0  0  0
  -40.3126   63.5760   68.1566 H   0  0  0  0  0  0  0  0  0  0  0  0
  -38.3664   57.9867   68.3777 H   0  0  0  0  0  0  0  0  0  0  0  0
  -37.7092   59.2871   69.2959 H   0  0  0  0  0  0  0  0  0  0  0  0
  -39.5569   59.0450   70.9147 H   0  0  0  0  0  0  0  0  0  0  0  0
  -40.1205   57.6501   69.9303 H   0  0  0  0  0  0  0  0  0  0  0  0
  -38.9248   55.5610   69.9543 H   0  0  0  0  0  0  0  0  0  0  0  0
  -37.4843   55.3999   70.9301 H   0  0  0  0  0  0  0  0  0  0  0  0
  -37.4564   56.3845   69.4869 H   0  0  0  0  0  0  0  0  0  0  0  0
  -41.1879   61.1576   70.9494 H   0  0  0  0  0  0  0  0  0  0  0  0
  -40.1534   56.2932   71.9374 H   0  0  0  0  0  0  0  0  0  0  0  0
  -39.5506   57.6285   72.8895 H   0  0  0  0  0  0  0  0  0  0  0  0
  -38.6901   56.1079   72.8741 H   0  0  0  0  0  0  0  0  0  0  0  0
  -36.6540   58.2850   70.7822 H   0  0  0  0  0  0  0  0  0  0  0  0
  -36.6538   57.2669   72.2022 H   0  0  0  0  0  0  0  0  0  0  0  0
  -37.5143   58.7875   72.2176 H   0  0  0  0  0  0  0  0  0  0  0  0
  -41.1472   63.7099   65.7127 H   0  0  0  0  0  0  0  0  0  0  0  0
  -42.8504   63.7102   65.4077 H   0  0  0  0  0  0  0  0  0  0  0  0
  -40.1644   59.2843   66.0305 H   0  0  0  0  0  0  0  0  0  0  0  0
  -40.1985   60.2448   64.5410 H   0  0  0  0  0  0  0  0  0  0  0  0
  -41.8086   58.4429   64.4703 H   0  0  0  0  0  0  0  0  0  0  0  0
  -42.5713   60.0428   64.4426 H   0  0  0  0  0  0  0  0  0  0  0  0
  -43.1183   59.8483   66.7560 H   0  0  0  0  0  0  0  0  0  0  0  0
  -42.3406   58.2423   66.7808 H   0  0  0  0  0  0  0  0  0  0  0  0
  -43.9814   57.3901   65.3063 H   0  0  0  0  0  0  0  0  0  0  0  0
  -44.7539   58.9929   65.2537 H   0  0  0  0  0  0  0  0  0  0  0  0
  -44.5188   57.2683   67.6603 H   0  0  0  0  0  0  0  0  0  0  0  0
  -45.9594   57.4883   66.6576 H   0  0  0  0  0  0  0  0  0  0  0  0
  -44.5587   59.6157   68.1846 H   0  0  0  0  0  0  0  0  0  0  0  0
  -46.0905   58.7909   68.6133 H   0  0  0  0  0  0  0  0  0  0  0  0
  -46.4673   60.9889   67.7608 H   0  0  0  0  0  0  0  0  0  0  0  0
  -47.1413   59.7025   66.7386 H   0  0  0  0  0  0  0  0  0  0  0  0
  -44.9648   61.5544   66.0830 H   0  0  0  0  0  0  0  0  0  0  0  0
  -45.0144   60.7978   63.9963 H   0  0  0  0  0  0  0  0  0  0  0  0
  -46.0470   58.2533   64.6545 H   0  0  0  0  0  0  0  0  0  0  0  0
  -46.1726   59.1176   63.0889 H   0  0  0  0  0  0  0  0  0  0  0  0
  -48.2070   60.1075   63.7568 H   0  0  0  0  0  0  0  0  0  0  0  0
  -48.0940   59.2980   65.3282 H   0  0  0  0  0  0  0  0  0  0  0  0
  -49.6417   58.1850   63.8728 H   0  0  0  0  0  0  0  0  0  0  0  0
  -48.2122   57.1888   64.2658 H   0  0  0  0  0  0  0  0  0  0  0  0
  -48.6643   58.6193   61.7083 H   0  0  0  0  0  0  0  0  0  0  0  0
  -48.8921   56.8892   62.0063 H   0  0  0  0  0  0  0  0  0  0  0  0
  -46.3253   58.3736   62.2544 H   0  0  0  0  0  0  0  0  0  0  0  0
  -46.8300   57.2956   60.9203 H   0  0  0  0  0  0  0  0  0  0  0  0
  -46.3772   56.4690   63.7258 H   0  0  0  0  0  0  0  0  0  0  0  0
  -45.2748   56.2349   62.3547 H   0  0  0  0  0  0  0  0  0  0  0  0
  -47.9945   55.1213   62.6011 H   0  0  0  0  0  0  0  0  0  0  0  0
  -46.4574   54.2685   62.8560 H   0  0  0  0  0  0  0  0  0  0  0  0
  -47.3846   55.4777   60.3345 H   0  0  0  0  0  0  0  0  0  0  0  0
  -47.3606   53.7755   60.7283 H   0  0  0  0  0  0  0  0  0  0  0  0
  -45.8616   54.6645   60.6034 H   0  0  0  0  0  0  0  0  0  0  0  0
  1  9  1  0  0  0  0
  1 11  1  0  0  0  0
  1 13  1  0  0  0  0
  1 15  1  0  0  0  0
  2  3  1  0  0  0  0
  2  5  1  0  0  0  0
  2 17  1  0  0  0  0
  2 36  1  1  0  0  0
  3 37  1  0  0  0  0
  4  6  1  0  0  0  0
  4  8  2  1  0  0  0
  4 10  1  0  0  0  0
  4 12  1  0  0  0  0
  5  6  1  0  0  0  0
  5 38  1  0  0  0  0
  5 39  1  0  0  0  0
  7  9  1  0  0  0  0
  7 10  1  0  0  0  0
  7 40  1  0  0  0  0
  7 41  1  0  0  0  0
  9 42  1  0  0  0  0
  9 43  1  0  0  0  0
 11 44  1  0  0  0  0
 11 45  1  0  0  0  0
 11 46  1  0  0  0  0
 12 47  1  0  0  0  0
 13 48  1  0  0  0  0
 13 49  1  0  0  0  0
 13 50  1  0  0  0  0
 14 17  1  0  0  0  0
 14 18  1  0  0  0  0
 15 51  1  0  0  0  0
 15 52  1  0  0  0  0
 15 53  1  0  0  0  0
 16 18  2  0  0  0  0
 17 54  1  0  0  0  0
 17 55  1  0  0  0  0
 18 19  1  0  0  0  0
 19 20  1  0  0  0  0
 19 56  1  0  0  0  0
 19 57  1  0  0  0  0
 20 21  1  0  0  0  0
 20 58  1  0  0  0  0
 20 59  1  0  0  0  0
 21 22  1  0  0  0  0
 21 60  1  0  0  0  0
 21 61  1  0  0  0  0
 22 23  1  0  0  0  0
 22 62  1  0  0  0  0
 22 63  1  0  0  0  0
 23 24  1  0  0  0  0
 23 64  1  0  0  0  0
 23 65  1  0  0  0  0
 24 25  1  0  0  0  0
 24 66  1  0  0  0  0
 24 67  1  0  0  0  0
 25 26  1  0  0  0  0
 25 68  1  0  0  0  0
 25 69  1  0  0  0  0
 26 27  2  0  0  0  0
 26 70  1  0  0  0  0
 27 28  1  0  0  0  0
 27 71  1  0  0  0  0
 28 29  1  0  0  0  0
 28 72  1  0  0  0  0
 28 73  1  0  0  0  0
 29 30  1  0  0  0  0
 29 74  1  0  0  0  0
 29 75  1  0  0  0  0
 30 31  1  0  0  0  0
 30 76  1  0  0  0  0
 30 77  1  0  0  0  0
 31 32  1  0  0  0  0
 31 78  1  0  0  0  0
 31 79  1  0  0  0  0
 32 33  1  0  0  0  0
 32 80  1  0  0  0  0
 32 81  1  0  0  0  0
 33 34  1  0  0  0  0
 33 82  1  0  0  0  0
 33 83  1  0  0  0  0
 34 35  1  0  0  0  0
 34 84  1  0  0  0  0
 34 85  1  0  0  0  0
 35 86  1  0  0  0  0
 35 87  1  0  0  0  0
 35 88  1  0  0  0  0
M  CHG  1   8  -1
M  END
$$$$