/media/chris/experiments/cd1a-new-docking/inputs/ligands/4x6c_ligand.pdb
 OpenBabel07012320263D

 88 87  0  0  1  0  0  0  0  0999 V2000
  -43.3824   62.8924   62.9630 N   0  0  0  0  0  4  0  0  0  0  0  0
  -40.2815   63.9089   67.5020 C   0  0  1  0  0  0  0  0  0  0  0  0
  -39.5156   64.5417   66.4768 O   0  0  0  0  0  0  0  0  0  0  0  0
  -43.6509   65.5852   66.4589 P   0  0  2  0  0  0  0  0  0  0  0  0
  -41.7315   63.9110   67.0825 C   0  0  0  0  0  0  0  0  0  0  0  0
  -42.1516   65.2769   66.8907 O   0  0  0  0  0  0  0  0  0  0  0  0
  -44.5032   63.4401   65.2104 C   0  0  0  0  0  0  0  0  0  0  0  0
  -44.5257   65.0579   67.5255 O   0  5  0  0  0  0  0  0  0  0  0  0
  -44.6553   62.9665   63.7827 C   0  0  0  0  0  0  0  0  0  0  0  0
  -43.9590   64.7783   65.1281 O   0  0  0  0  0  0  0  0  0  0  0  0
  -42.7203   64.2297   62.8734 C   0  0  0  0  0  0  0  0  0  0  0  0
  -43.7121   67.0212   66.1226 O   0  0  0  0  0  0  0  0  0  0  0  0
  -43.7046   62.4252   61.5798 C   0  0  0  0  0  0  0  0  0  0  0  0
  -39.7518   61.7899   66.5621 O   0  0  0  0  0  0  0  0  0  0  0  0
  -42.4310   61.9291   63.6005 C   0  0  0  0  0  0  0  0  0  0  0  0
  -41.9781   61.6793   66.5336 O   0  0  0  0  0  0  0  0  0  0  0  0
  -39.7021   62.5438   67.7939 C   0  0  0  0  0  0  0  0  0  0  0  0
  -40.9154   61.2318   66.2282 C   0  0  0  0  0  0  0  0  0  0  0  0
  -40.7200   59.9800   65.4370 C   0  0  0  0  0  0  0  0  0  0  0  0
  -42.0280   59.3300   65.0270 C   0  0  0  0  0  0  0  0  0  0  0  0
  -42.8960   58.9560   66.2090 C   0  0  0  0  0  0  0  0  0  0  0  0
  -44.2012   58.2902   65.8416 C   0  0  0  0  0  0  0  0  0  0  0  0
  -45.0623   57.9388   67.0279 C   0  0  0  0  0  0  0  0  0  0  0  0
  -46.3454   57.2626   66.6256 C   0  0  0  0  0  0  0  0  0  0  0  0
  -47.2342   58.0573   65.7153 C   0  0  0  0  0  0  0  0  0  0  0  0
  -47.6553   59.3436   66.2891 C   0  0  0  0  0  0  0  0  0  0  0  0
  -48.8788   59.7584   66.5333 C   0  0  0  0  0  0  0  0  0  0  0  0
  -50.1522   59.0270   66.3145 C   0  0  0  0  0  0  0  0  0  0  0  0
  -51.2758   59.3712   67.2708 C   0  0  0  0  0  0  0  0  0  0  0  0
  -50.9178   59.1067   68.7075 C   0  0  0  0  0  0  0  0  0  0  0  0
  -49.7376   59.8936   69.2172 C   0  0  0  0  0  0  0  0  0  0  0  0
  -49.9634   61.3881   69.1528 C   0  0  0  0  0  0  0  0  0  0  0  0
  -48.8104   62.2241   69.6340 C   0  0  0  0  0  0  0  0  0  0  0  0
  -47.5752   62.0156   68.8530 C   0  0  0  0  0  0  0  0  0  0  0  0
  -46.4469   62.8143   69.3275 C   0  0  0  0  0  0  0  0  0  0  0  0
  -40.2343   64.4389   68.4303 H   0  0  0  0  0  0  0  0  0  0  0  0
  -39.5871   64.0289   65.6566 H   0  0  0  0  0  0  0  0  0  0  0  0
  -42.3280   63.4537   67.8440 H   0  0  0  0  0  0  0  0  0  0  0  0
  -41.8501   63.3604   66.1727 H   0  0  0  0  0  0  0  0  0  0  0  0
  -43.8350   62.7988   65.7461 H   0  0  0  0  0  0  0  0  0  0  0  0
  -45.4383   63.4274   65.7303 H   0  0  0  0  0  0  0  0  0  0  0  0
  -45.0850   61.9869   63.8077 H   0  0  0  0  0  0  0  0  0  0  0  0
  -45.2641   63.7024   63.3002 H   0  0  0  0  0  0  0  0  0  0  0  0
  -43.3900   64.9295   62.4189 H   0  0  0  0  0  0  0  0  0  0  0  0
  -41.8327   64.1493   62.2814 H   0  0  0  0  0  0  0  0  0  0  0  0
  -42.4643   64.5675   63.8559 H   0  0  0  0  0  0  0  0  0  0  0  0
  -43.5279   67.5473   66.9164 H   0  0  0  0  0  0  0  0  0  0  0  0
  -44.3849   63.1119   61.1209 H   0  0  0  0  0  0  0  0  0  0  0  0
  -44.1542   61.4553   61.6266 H   0  0  0  0  0  0  0  0  0  0  0  0
  -42.8055   62.3740   61.0021 H   0  0  0  0  0  0  0  0  0  0  0  0
  -42.1981   62.2604   64.5909 H   0  0  0  0  0  0  0  0  0  0  0  0
  -41.5330   61.8784   63.0210 H   0  0  0  0  0  0  0  0  0  0  0  0
  -42.8817   60.9597   63.6455 H   0  0  0  0  0  0  0  0  0  0  0  0
  -40.2807   62.0530   68.5484 H   0  0  0  0  0  0  0  0  0  0  0  0
  -38.6967   62.6247   68.1510 H   0  0  0  0  0  0  0  0  0  0  0  0
  -40.1644   59.2843   66.0305 H   0  0  0  0  0  0  0  0  0  0  0  0
  -40.1985   60.2448   64.5410 H   0  0  0  0  0  0  0  0  0  0  0  0
  -41.8086   58.4429   64.4703 H   0  0  0  0  0  0  0  0  0  0  0  0
  -42.5713   60.0428   64.4426 H   0  0  0  0  0  0  0  0  0  0  0  0
  -43.1183   59.8483   66.7560 H   0  0  0  0  0  0  0  0  0  0  0  0
  -42.3406   58.2423   66.7808 H   0  0  0  0  0  0  0  0  0  0  0  0
  -43.9814   57.3901   65.3063 H   0  0  0  0  0  0  0  0  0  0  0  0
  -44.7539   58.9929   65.2537 H   0  0  0  0  0  0  0  0  0  0  0  0
  -45.2991   58.8372   67.5587 H   0  0  0  0  0  0  0  0  0  0  0  0
  -44.5114   57.2554   67.6397 H   0  0  0  0  0  0  0  0  0  0  0  0
  -46.8964   57.0438   67.5164 H   0  0  0  0  0  0  0  0  0  0  0  0
  -46.0590   56.3928   66.0721 H   0  0  0  0  0  0  0  0  0  0  0  0
  -48.1084   57.4777   65.5036 H   0  0  0  0  0  0  0  0  0  0  0  0
  -46.6699   58.2743   64.8325 H   0  0  0  0  0  0  0  0  0  0  0  0
  -46.8977   60.0018   66.5296 H   0  0  0  0  0  0  0  0  0  0  0  0
  -48.9646   60.7092   66.9253 H   0  0  0  0  0  0  0  0  0  0  0  0
  -49.9508   57.9802   66.4059 H   0  0  0  0  0  0  0  0  0  0  0  0
  -50.4943   59.3178   65.3432 H   0  0  0  0  0  0  0  0  0  0  0  0
  -52.1328   58.7826   67.0178 H   0  0  0  0  0  0  0  0  0  0  0  0
  -51.4721   60.4186   67.1746 H   0  0  0  0  0  0  0  0  0  0  0  0
  -50.6931   58.0655   68.8088 H   0  0  0  0  0  0  0  0  0  0  0  0
  -51.7607   59.4140   69.2906 H   0  0  0  0  0  0  0  0  0  0  0  0
  -48.8813   59.6505   68.6234 H   0  0  0  0  0  0  0  0  0  0  0  0
  -49.5926   59.6316   70.2445 H   0  0  0  0  0  0  0  0  0  0  0  0
  -50.8169   61.6214   69.7545 H   0  0  0  0  0  0  0  0  0  0  0  0
  -50.0960   61.6271   68.1183 H   0  0  0  0  0  0  0  0  0  0  0  0
  -48.6129   61.9752   70.6557 H   0  0  0  0  0  0  0  0  0  0  0  0
  -49.0910   63.2501   69.5173 H   0  0  0  0  0  0  0  0  0  0  0  0
  -47.7704   62.2761   67.8337 H   0  0  0  0  0  0  0  0  0  0  0  0
  -47.3022   60.9868   68.9622 H   0  0  0  0  0  0  0  0  0  0  0  0
  -46.6817   63.8540   69.2342 H   0  0  0  0  0  0  0  0  0  0  0  0
  -45.5800   62.5905   68.7416 H   0  0  0  0  0  0  0  0  0  0  0  0
  -46.2530   62.5831   70.3541 H   0  0  0  0  0  0  0  0  0  0  0  0
  1  9  1  0  0  0  0
  1 11  1  0  0  0  0
  1 13  1  0  0  0  0
  1 15  1  0  0  0  0
  2  3  1  0  0  0  0
  2  5  1  0  0  0  0
  2 17  1  0  0  0  0
  2 36  1  1  0  0  0
  3 37  1  0  0  0  0
  4  6  1  0  0  0  0
  4  8  2  1  0  0  0
  4 10  1  0  0  0  0
  4 12  1  0  0  0  0
  5  6  1  0  0  0  0
  5 38  1  0  0  0  0
  5 39  1  0  0  0  0
  7  9  1  0  0  0  0
  7 10  1  0  0  0  0
  7 40  1  0  0  0  0
  7 41  1  0  0  0  0
  9 42  1  0  0  0  0
  9 43  1  0  0  0  0
 11 44  1  0  0  0  0
 11 45  1  0  0  0  0
 11 46  1  0  0  0  0
 12 47  1  0  0  0  0
 13 48  1  0  0  0  0
 13 49  1  0  0  0  0
 13 50  1  0  0  0  0
 14 17  1  0  0  0  0
 14 18  1  0  0  0  0
 15 51  1  0  0  0  0
 15 52  1  0  0  0  0
 15 53  1  0  0  0  0
 16 18  2  0  0  0  0
 17 54  1  0  0  0  0
 17 55  1  0  0  0  0
 18 19  1  0  0  0  0
 19 20  1  0  0  0  0
 19 56  1  0  0  0  0
 19 57  1  0  0  0  0
 20 21  1  0  0  0  0
 20 58  1  0  0  0  0
 20 59  1  0  0  0  0
 21 22  1  0  0  0  0
 21 60  1  0  0  0  0
 21 61  1  0  0  0  0
 22 23  1  0  0  0  0
 22 62  1  0  0  0  0
 22 63  1  0  0  0  0
 23 24  1  0  0  0  0
 23 64  1  0  0  0  0
 23 65  1  0  0  0  0
 24 25  1  0  0  0  0
 24 66  1  0  0  0  0
 24 67  1  0  0  0  0
 25 26  1  0  0  0  0
 25 68  1  0  0  0  0
 25 69  1  0  0  0  0
 26 27  2  0  0  0  0
 26 70  1  0  0  0  0
 27 28  1  0  0  0  0
 27 71  1  0  0  0  0
 28 29  1  0  0  0  0
 28 72  1  0  0  0  0
 28 73  1  0  0  0  0
 29 30  1  0  0  0  0
 29 74  1  0  0  0  0
 29 75  1  0  0  0  0
 30 31  1  0  0  0  0
 30 76  1  0  0  0  0
 30 77  1  0  0  0  0
 31 32  1  0  0  0  0
 31 78  1  0  0  0  0
 31 79  1  0  0  0  0
 32 33  1  0  0  0  0
 32 80  1  0  0  0  0
 32 81  1  0  0  0  0
 33 34  1  0  0  0  0
 33 82  1  0  0  0  0
 33 83  1  0  0  0  0
 34 35  1  0  0  0  0
 34 84  1  0  0  0  0
 34 85  1  0  0  0  0
 35 86  1  0  0  0  0
 35 87  1  0  0  0  0
 35 88  1  0  0  0  0
M  CHG  1   8  -1
M  END
$$$$