/media/chris/experiments/cd1a-new-docking/inputs/ligands/4x6c_ligand.pdb
 OpenBabel07012320263D

 88 87  0  0  1  0  0  0  0  0999 V2000
  -36.7536   50.8693   65.6239 N   0  0  0  0  0  4  0  0  0  0  0  0
  -36.6839   58.0497   66.7661 C   0  0  1  0  0  0  0  0  0  0  0  0
  -35.7895   57.7501   67.8377 O   0  0  0  0  0  0  0  0  0  0  0  0
  -36.5558   54.4593   65.2351 P   0  0  2  0  0  0  0  0  0  0  0  0
  -37.2832   56.7559   66.2708 C   0  0  0  0  0  0  0  0  0  0  0  0
  -36.2146   55.8950   65.8281 O   0  0  0  0  0  0  0  0  0  0  0  0
  -35.4943   52.7194   66.8881 C   0  0  0  0  0  0  0  0  0  0  0  0
  -37.8009   54.0063   65.8874 O   0  5  0  0  0  0  0  0  0  0  0  0
  -36.7394   51.8713   66.7612 C   0  0  0  0  0  0  0  0  0  0  0  0
  -35.3935   53.4627   65.6508 O   0  0  0  0  0  0  0  0  0  0  0  0
  -35.6403   49.8812   65.7622 C   0  0  0  0  0  0  0  0  0  0  0  0
  -36.5184   54.5843   63.7647 O   0  0  0  0  0  0  0  0  0  0  0  0
  -36.5958   51.5877   64.3223 C   0  0  0  0  0  0  0  0  0  0  0  0
  -38.5713   59.3368   66.1067 O   0  0  0  0  0  0  0  0  0  0  0  0
  -38.0539   50.1285   65.6247 C   0  0  0  0  0  0  0  0  0  0  0  0
  -40.2919   58.2579   67.0258 O   0  0  0  0  0  0  0  0  0  0  0  0
  -37.6858   59.0860   67.2206 C   0  0  0  0  0  0  0  0  0  0  0  0
  -39.8694   59.0915   66.2844 C   0  0  0  0  0  0  0  0  0  0  0  0
  -40.7200   59.9800   65.4370 C   0  0  0  0  0  0  0  0  0  0  0  0
  -42.0280   59.3300   65.0270 C   0  0  0  0  0  0  0  0  0  0  0  0
  -42.8960   58.9560   66.2090 C   0  0  0  0  0  0  0  0  0  0  0  0
  -44.2012   58.2902   65.8416 C   0  0  0  0  0  0  0  0  0  0  0  0
  -45.0623   57.9388   67.0279 C   0  0  0  0  0  0  0  0  0  0  0  0
  -46.3454   57.2626   66.6256 C   0  0  0  0  0  0  0  0  0  0  0  0
  -46.1864   55.9650   65.8901 C   0  0  0  0  0  0  0  0  0  0  0  0
  -45.4822   54.9361   66.6690 C   0  0  0  0  0  0  0  0  0  0  0  0
  -44.3584   54.3229   66.3695 C   0  0  0  0  0  0  0  0  0  0  0  0
  -43.4962   54.5262   65.1779 C   0  0  0  0  0  0  0  0  0  0  0  0
  -42.0767   54.9697   65.4668 C   0  0  0  0  0  0  0  0  0  0  0  0
  -41.3150   53.9752   66.2991 C   0  0  0  0  0  0  0  0  0  0  0  0
  -41.1616   52.6141   65.6700 C   0  0  0  0  0  0  0  0  0  0  0  0
  -40.4041   51.6472   66.5530 C   0  0  0  0  0  0  0  0  0  0  0  0
  -39.0104   52.0789   66.9151 C   0  0  0  0  0  0  0  0  0  0  0  0
  -38.9716   53.3510   67.6630 C   0  0  0  0  0  0  0  0  0  0  0  0
  -39.6900   53.2986   68.9347 C   0  0  0  0  0  0  0  0  0  0  0  0
  -36.1827   58.4907   65.9298 H   0  0  0  0  0  0  0  0  0  0  0  0
  -36.2851   57.3537   68.5712 H   0  0  0  0  0  0  0  0  0  0  0  0
  -37.9474   56.9547   65.4558 H   0  0  0  0  0  0  0  0  0  0  0  0
  -37.8327   56.2823   67.0574 H   0  0  0  0  0  0  0  0  0  0  0  0
  -34.6330   52.0986   67.0207 H   0  0  0  0  0  0  0  0  0  0  0  0
  -35.5475   53.3713   67.7350 H   0  0  0  0  0  0  0  0  0  0  0  0
  -36.8596   51.3289   67.6757 H   0  0  0  0  0  0  0  0  0  0  0  0
  -37.5326   52.5572   66.5485 H   0  0  0  0  0  0  0  0  0  0  0  0
  -34.7032   50.3976   65.7632 H   0  0  0  0  0  0  0  0  0  0  0  0
  -35.6686   49.1949   64.9418 H   0  0  0  0  0  0  0  0  0  0  0  0
  -35.7524   49.3438   66.6807 H   0  0  0  0  0  0  0  0  0  0  0  0
  -37.2187   55.1891   63.4737 H   0  0  0  0  0  0  0  0  0  0  0  0
  -35.6669   52.1187   64.3183 H   0  0  0  0  0  0  0  0  0  0  0  0
  -37.4025   52.2794   64.1966 H   0  0  0  0  0  0  0  0  0  0  0  0
  -36.6052   50.8793   63.5205 H   0  0  0  0  0  0  0  0  0  0  0  0
  -38.1701   49.6130   66.5551 H   0  0  0  0  0  0  0  0  0  0  0  0
  -38.0619   49.4213   64.8217 H   0  0  0  0  0  0  0  0  0  0  0  0
  -38.8592   50.8214   65.4978 H   0  0  0  0  0  0  0  0  0  0  0  0
  -37.1810   59.9876   67.4987 H   0  0  0  0  0  0  0  0  0  0  0  0
  -38.2331   58.7393   68.0722 H   0  0  0  0  0  0  0  0  0  0  0  0
  -40.1733   60.2341   64.5530 H   0  0  0  0  0  0  0  0  0  0  0  0
  -40.9602   60.8449   66.0193 H   0  0  0  0  0  0  0  0  0  0  0  0
  -41.8086   58.4429   64.4703 H   0  0  0  0  0  0  0  0  0  0  0  0
  -42.5713   60.0428   64.4426 H   0  0  0  0  0  0  0  0  0  0  0  0
  -43.1183   59.8483   66.7560 H   0  0  0  0  0  0  0  0  0  0  0  0
  -42.3406   58.2423   66.7808 H   0  0  0  0  0  0  0  0  0  0  0  0
  -43.9814   57.3901   65.3063 H   0  0  0  0  0  0  0  0  0  0  0  0
  -44.7539   58.9929   65.2537 H   0  0  0  0  0  0  0  0  0  0  0  0
  -45.2991   58.8372   67.5587 H   0  0  0  0  0  0  0  0  0  0  0  0
  -44.5114   57.2554   67.6397 H   0  0  0  0  0  0  0  0  0  0  0  0
  -46.8891   57.9348   65.9952 H   0  0  0  0  0  0  0  0  0  0  0  0
  -46.8512   57.0241   67.5379 H   0  0  0  0  0  0  0  0  0  0  0  0
  -45.6333   56.1490   64.9928 H   0  0  0  0  0  0  0  0  0  0  0  0
  -47.1692   55.5925   65.6896 H   0  0  0  0  0  0  0  0  0  0  0  0
  -45.9242   54.6614   67.5602 H   0  0  0  0  0  0  0  0  0  0  0  0
  -44.0359   53.6131   67.0457 H   0  0  0  0  0  0  0  0  0  0  0  0
  -43.9554   55.2712   64.5623 H   0  0  0  0  0  0  0  0  0  0  0  0
  -43.4144   53.5682   64.7082 H   0  0  0  0  0  0  0  0  0  0  0  0
  -42.1095   55.9014   65.9919 H   0  0  0  0  0  0  0  0  0  0  0  0
  -41.5699   55.0611   64.5289 H   0  0  0  0  0  0  0  0  0  0  0  0
  -41.8292   53.8561   67.2299 H   0  0  0  0  0  0  0  0  0  0  0  0
  -40.3266   54.3693   66.4118 H   0  0  0  0  0  0  0  0  0  0  0  0
  -40.6324   52.7212   64.7462 H   0  0  0  0  0  0  0  0  0  0  0  0
  -42.1426   52.2145   65.5187 H   0  0  0  0  0  0  0  0  0  0  0  0
  -40.3391   50.7101   66.0406 H   0  0  0  0  0  0  0  0  0  0  0  0
  -40.9488   51.5906   67.4722 H   0  0  0  0  0  0  0  0  0  0  0  0
  -38.4459   52.1969   66.0138 H   0  0  0  0  0  0  0  0  0  0  0  0
  -38.5986   51.3234   67.5512 H   0  0  0  0  0  0  0  0  0  0  0  0
  -39.4113   54.1148   67.0562 H   0  0  0  0  0  0  0  0  0  0  0  0
  -37.9454   53.5542   67.8879 H   0  0  0  0  0  0  0  0  0  0  0  0
  -40.7247   53.0966   68.7518 H   0  0  0  0  0  0  0  0  0  0  0  0
  -39.5936   54.2381   69.4378 H   0  0  0  0  0  0  0  0  0  0  0  0
  -39.2777   52.5229   69.5456 H   0  0  0  0  0  0  0  0  0  0  0  0
  1  9  1  0  0  0  0
  1 11  1  0  0  0  0
  1 13  1  0  0  0  0
  1 15  1  0  0  0  0
  2  3  1  0  0  0  0
  2  5  1  0  0  0  0
  2 17  1  0  0  0  0
  2 36  1  6  0  0  0
  3 37  1  0  0  0  0
  4  6  1  0  0  0  0
  4  8  2  1  0  0  0
  4 10  1  0  0  0  0
  4 12  1  0  0  0  0
  5  6  1  0  0  0  0
  5 38  1  0  0  0  0
  5 39  1  0  0  0  0
  7  9  1  0  0  0  0
  7 10  1  0  0  0  0
  7 40  1  0  0  0  0
  7 41  1  0  0  0  0
  9 42  1  0  0  0  0
  9 43  1  0  0  0  0
 11 44  1  0  0  0  0
 11 45  1  0  0  0  0
 11 46  1  0  0  0  0
 12 47  1  0  0  0  0
 13 48  1  0  0  0  0
 13 49  1  0  0  0  0
 13 50  1  0  0  0  0
 14 17  1  0  0  0  0
 14 18  1  0  0  0  0
 15 51  1  0  0  0  0
 15 52  1  0  0  0  0
 15 53  1  0  0  0  0
 16 18  2  0  0  0  0
 17 54  1  0  0  0  0
 17 55  1  0  0  0  0
 18 19  1  0  0  0  0
 19 20  1  0  0  0  0
 19 56  1  0  0  0  0
 19 57  1  0  0  0  0
 20 21  1  0  0  0  0
 20 58  1  0  0  0  0
 20 59  1  0  0  0  0
 21 22  1  0  0  0  0
 21 60  1  0  0  0  0
 21 61  1  0  0  0  0
 22 23  1  0  0  0  0
 22 62  1  0  0  0  0
 22 63  1  0  0  0  0
 23 24  1  0  0  0  0
 23 64  1  0  0  0  0
 23 65  1  0  0  0  0
 24 25  1  0  0  0  0
 24 66  1  0  0  0  0
 24 67  1  0  0  0  0
 25 26  1  0  0  0  0
 25 68  1  0  0  0  0
 25 69  1  0  0  0  0
 26 27  2  0  0  0  0
 26 70  1  0  0  0  0
 27 28  1  0  0  0  0
 27 71  1  0  0  0  0
 28 29  1  0  0  0  0
 28 72  1  0  0  0  0
 28 73  1  0  0  0  0
 29 30  1  0  0  0  0
 29 74  1  0  0  0  0
 29 75  1  0  0  0  0
 30 31  1  0  0  0  0
 30 76  1  0  0  0  0
 30 77  1  0  0  0  0
 31 32  1  0  0  0  0
 31 78  1  0  0  0  0
 31 79  1  0  0  0  0
 32 33  1  0  0  0  0
 32 80  1  0  0  0  0
 32 81  1  0  0  0  0
 33 34  1  0  0  0  0
 33 82  1  0  0  0  0
 33 83  1  0  0  0  0
 34 35  1  0  0  0  0
 34 84  1  0  0  0  0
 34 85  1  0  0  0  0
 35 86  1  0  0  0  0
 35 87  1  0  0  0  0
 35 88  1  0  0  0  0
M  CHG  1   8  -1
M  END
$$$$