/media/chris/experiments/cd1a-new-docking/inputs/ligands/4x6c_ligand.pdb
 OpenBabel07012320263D

 88 87  0  0  1  0  0  0  0  0999 V2000
  -36.6590   59.9143   70.9141 N   0  0  0  0  0  4  0  0  0  0  0  0
  -39.5490   57.5828   68.6732 C   0  0  1  0  0  0  0  0  0  0  0  0
  -40.8249   57.8626   69.2493 O   0  0  0  0  0  0  0  0  0  0  0  0
  -36.4083   55.6108   69.8976 P   0  0  2  0  0  0  0  0  0  0  0  0
  -38.7549   56.7556   69.6549 C   0  0  0  0  0  0  0  0  0  0  0  0
  -37.4590   56.4847   69.0840 O   0  0  0  0  0  0  0  0  0  0  0  0
  -35.3295   57.7175   71.0311 C   0  0  0  0  0  0  0  0  0  0  0  0
  -37.0518   55.2369   71.1732 O   0  5  0  0  0  0  0  0  0  0  0  0
  -36.3170   58.5809   70.2794 C   0  0  0  0  0  0  0  0  0  0  0  0
  -35.1552   56.5254   70.2297 O   0  0  0  0  0  0  0  0  0  0  0  0
  -37.2453   59.7280   72.2766 C   0  0  0  0  0  0  0  0  0  0  0  0
  -35.9424   54.5460   68.9876 O   0  0  0  0  0  0  0  0  0  0  0  0
  -37.6532   60.6342   70.0605 C   0  0  0  0  0  0  0  0  0  0  0  0
  -40.4503   57.9108   66.4975 O   0  0  0  0  0  0  0  0  0  0  0  0
  -35.4197   60.7441   71.0357 C   0  0  0  0  0  0  0  0  0  0  0  0
  -38.8039   59.3963   66.7259 O   0  0  0  0  0  0  0  0  0  0  0  0
  -39.7376   56.9534   67.3121 C   0  0  0  0  0  0  0  0  0  0  0  0
  -39.8694   59.0915   66.2844 C   0  0  0  0  0  0  0  0  0  0  0  0
  -40.7200   59.9800   65.4370 C   0  0  0  0  0  0  0  0  0  0  0  0
  -42.0280   59.3300   65.0270 C   0  0  0  0  0  0  0  0  0  0  0  0
  -42.8960   58.9560   66.2090 C   0  0  0  0  0  0  0  0  0  0  0  0
  -44.2012   58.2902   65.8416 C   0  0  0  0  0  0  0  0  0  0  0  0
  -44.0348   56.9933   65.0915 C   0  0  0  0  0  0  0  0  0  0  0  0
  -43.2785   57.1689   63.8021 C   0  0  0  0  0  0  0  0  0  0  0  0
  -43.0884   55.9208   62.9919 C   0  0  0  0  0  0  0  0  0  0  0  0
  -44.3532   55.3016   62.5699 C   0  0  0  0  0  0  0  0  0  0  0  0
  -45.0328   55.5221   61.4662 C   0  0  0  0  0  0  0  0  0  0  0  0
  -44.6886   56.4367   60.3485 C   0  0  0  0  0  0  0  0  0  0  0  0
  -43.8662   55.8244   59.2331 C   0  0  0  0  0  0  0  0  0  0  0  0
  -43.5396   56.8089   58.1439 C   0  0  0  0  0  0  0  0  0  0  0  0
  -42.7358   56.2409   57.0024 C   0  0  0  0  0  0  0  0  0  0  0  0
  -41.4056   55.6775   57.4514 C   0  0  0  0  0  0  0  0  0  0  0  0
  -40.5532   55.1117   56.3500 C   0  0  0  0  0  0  0  0  0  0  0  0
  -39.2725   54.5580   56.8321 C   0  0  0  0  0  0  0  0  0  0  0  0
  -38.4332   54.0213   55.7626 C   0  0  0  0  0  0  0  0  0  0  0  0
  -38.9795   58.4712   68.4960 H   0  0  0  0  0  0  0  0  0  0  0  0
  -41.3045   57.0316   69.3920 H   0  0  0  0  0  0  0  0  0  0  0  0
  -39.2648   55.8344   69.8457 H   0  0  0  0  0  0  0  0  0  0  0  0
  -38.6448   57.2875   70.5768 H   0  0  0  0  0  0  0  0  0  0  0  0
  -35.7159   57.4640   71.9962 H   0  0  0  0  0  0  0  0  0  0  0  0
  -34.4010   58.2261   71.1861 H   0  0  0  0  0  0  0  0  0  0  0  0
  -35.9082   58.7760   69.3100 H   0  0  0  0  0  0  0  0  0  0  0  0
  -37.2319   58.0261   70.2681 H   0  0  0  0  0  0  0  0  0  0  0  0
  -38.1334   59.1356   72.2048 H   0  0  0  0  0  0  0  0  0  0  0  0
  -37.4864   60.6830   72.6947 H   0  0  0  0  0  0  0  0  0  0  0  0
  -36.5356   59.2323   72.9056 H   0  0  0  0  0  0  0  0  0  0  0  0
  -36.6858   53.9650   68.7623 H   0  0  0  0  0  0  0  0  0  0  0  0
  -38.5408   60.0435   69.9714 H   0  0  0  0  0  0  0  0  0  0  0  0
  -37.2358   60.7996   69.0893 H   0  0  0  0  0  0  0  0  0  0  0  0
  -37.8943   61.5748   70.5100 H   0  0  0  0  0  0  0  0  0  0  0  0
  -34.7057   60.2317   71.6462 H   0  0  0  0  0  0  0  0  0  0  0  0
  -35.6628   61.6846   71.4843 H   0  0  0  0  0  0  0  0  0  0  0  0
  -35.0043   60.9095   70.0636 H   0  0  0  0  0  0  0  0  0  0  0  0
  -40.3060   56.0512   67.4003 H   0  0  0  0  0  0  0  0  0  0  0  0
  -38.7940   56.7062   66.8723 H   0  0  0  0  0  0  0  0  0  0  0  0
  -40.1733   60.2341   64.5530 H   0  0  0  0  0  0  0  0  0  0  0  0
  -40.9602   60.8449   66.0193 H   0  0  0  0  0  0  0  0  0  0  0  0
  -41.8086   58.4429   64.4703 H   0  0  0  0  0  0  0  0  0  0  0  0
  -42.5713   60.0428   64.4426 H   0  0  0  0  0  0  0  0  0  0  0  0
  -43.1183   59.8483   66.7560 H   0  0  0  0  0  0  0  0  0  0  0  0
  -42.3406   58.2423   66.7808 H   0  0  0  0  0  0  0  0  0  0  0  0
  -44.7626   58.9643   65.2288 H   0  0  0  0  0  0  0  0  0  0  0  0
  -44.7001   58.0569   66.7589 H   0  0  0  0  0  0  0  0  0  0  0  0
  -45.0040   56.5976   64.8702 H   0  0  0  0  0  0  0  0  0  0  0  0
  -43.4718   56.3277   65.7118 H   0  0  0  0  0  0  0  0  0  0  0  0
  -42.3108   57.5600   64.0377 H   0  0  0  0  0  0  0  0  0  0  0  0
  -43.8722   57.8238   63.1992 H   0  0  0  0  0  0  0  0  0  0  0  0
  -42.5442   55.2130   63.5816 H   0  0  0  0  0  0  0  0  0  0  0  0
  -42.5599   56.1977   62.1037 H   0  0  0  0  0  0  0  0  0  0  0  0
  -44.7570   54.6089   63.2196 H   0  0  0  0  0  0  0  0  0  0  0  0
  -45.9139   54.9945   61.3643 H   0  0  0  0  0  0  0  0  0  0  0  0
  -44.1348   57.2579   60.7535 H   0  0  0  0  0  0  0  0  0  0  0  0
  -45.6197   56.7209   59.9046 H   0  0  0  0  0  0  0  0  0  0  0  0
  -44.4184   55.0131   58.8067 H   0  0  0  0  0  0  0  0  0  0  0  0
  -42.9413   55.4942   59.6578 H   0  0  0  0  0  0  0  0  0  0  0  0
  -42.9816   57.6124   58.5773 H   0  0  0  0  0  0  0  0  0  0  0  0
  -44.4749   57.1219   57.7289 H   0  0  0  0  0  0  0  0  0  0  0  0
  -42.5557   57.0186   56.2898 H   0  0  0  0  0  0  0  0  0  0  0  0
  -43.3005   55.4382   56.5761 H   0  0  0  0  0  0  0  0  0  0  0  0
  -41.5967   54.8971   58.1580 H   0  0  0  0  0  0  0  0  0  0  0  0
  -40.8564   56.4979   57.8643 H   0  0  0  0  0  0  0  0  0  0  0  0
  -40.3438   55.8911   55.6475 H   0  0  0  0  0  0  0  0  0  0  0  0
  -41.1006   54.3067   55.9059 H   0  0  0  0  0  0  0  0  0  0  0  0
  -39.4829   53.7707   57.5256 H   0  0  0  0  0  0  0  0  0  0  0  0
  -38.7312   55.3620   57.2853 H   0  0  0  0  0  0  0  0  0  0  0  0
  -38.9416   53.2114   55.2826 H   0  0  0  0  0  0  0  0  0  0  0  0
  -37.5111   53.6690   56.1756 H   0  0  0  0  0  0  0  0  0  0  0  0
  -38.2324   54.7908   55.0467 H   0  0  0  0  0  0  0  0  0  0  0  0
  1  9  1  0  0  0  0
  1 11  1  0  0  0  0
  1 13  1  0  0  0  0
  1 15  1  0  0  0  0
  2  3  1  0  0  0  0
  2  5  1  0  0  0  0
  2 17  1  0  0  0  0
  2 36  1  6  0  0  0
  3 37  1  0  0  0  0
  4  6  1  0  0  0  0
  4  8  2  1  0  0  0
  4 10  1  0  0  0  0
  4 12  1  0  0  0  0
  5  6  1  0  0  0  0
  5 38  1  0  0  0  0
  5 39  1  0  0  0  0
  7  9  1  0  0  0  0
  7 10  1  0  0  0  0
  7 40  1  0  0  0  0
  7 41  1  0  0  0  0
  9 42  1  0  0  0  0
  9 43  1  0  0  0  0
 11 44  1  0  0  0  0
 11 45  1  0  0  0  0
 11 46  1  0  0  0  0
 12 47  1  0  0  0  0
 13 48  1  0  0  0  0
 13 49  1  0  0  0  0
 13 50  1  0  0  0  0
 14 17  1  0  0  0  0
 14 18  1  0  0  0  0
 15 51  1  0  0  0  0
 15 52  1  0  0  0  0
 15 53  1  0  0  0  0
 16 18  2  0  0  0  0
 17 54  1  0  0  0  0
 17 55  1  0  0  0  0
 18 19  1  0  0  0  0
 19 20  1  0  0  0  0
 19 56  1  0  0  0  0
 19 57  1  0  0  0  0
 20 21  1  0  0  0  0
 20 58  1  0  0  0  0
 20 59  1  0  0  0  0
 21 22  1  0  0  0  0
 21 60  1  0  0  0  0
 21 61  1  0  0  0  0
 22 23  1  0  0  0  0
 22 62  1  0  0  0  0
 22 63  1  0  0  0  0
 23 24  1  0  0  0  0
 23 64  1  0  0  0  0
 23 65  1  0  0  0  0
 24 25  1  0  0  0  0
 24 66  1  0  0  0  0
 24 67  1  0  0  0  0
 25 26  1  0  0  0  0
 25 68  1  0  0  0  0
 25 69  1  0  0  0  0
 26 27  2  0  0  0  0
 26 70  1  0  0  0  0
 27 28  1  0  0  0  0
 27 71  1  0  0  0  0
 28 29  1  0  0  0  0
 28 72  1  0  0  0  0
 28 73  1  0  0  0  0
 29 30  1  0  0  0  0
 29 74  1  0  0  0  0
 29 75  1  0  0  0  0
 30 31  1  0  0  0  0
 30 76  1  0  0  0  0
 30 77  1  0  0  0  0
 31 32  1  0  0  0  0
 31 78  1  0  0  0  0
 31 79  1  0  0  0  0
 32 33  1  0  0  0  0
 32 80  1  0  0  0  0
 32 81  1  0  0  0  0
 33 34  1  0  0  0  0
 33 82  1  0  0  0  0
 33 83  1  0  0  0  0
 34 35  1  0  0  0  0
 34 84  1  0  0  0  0
 34 85  1  0  0  0  0
 35 86  1  0  0  0  0
 35 87  1  0  0  0  0
 35 88  1  0  0  0  0
M  CHG  1   8  -1
M  END
$$$$