/media/chris/experiments/cd1a-new-docking/inputs/ligands/4x6c_ligand.pdb
 OpenBabel07012320263D

 88 87  0  0  1  0  0  0  0  0999 V2000
  -33.5604   54.3269   70.9386 N   0  0  0  0  0  4  0  0  0  0  0  0
  -37.0497   57.2170   66.2602 C   0  0  1  0  0  0  0  0  0  0  0  0
  -36.6281   57.1782   64.8968 O   0  0  0  0  0  0  0  0  0  0  0  0
  -33.4272   57.3475   67.7133 P   0  0  2  0  0  0  0  0  0  0  0  0
  -35.9088   56.7382   67.1247 C   0  0  0  0  0  0  0  0  0  0  0  0
  -34.7859   57.6222   66.9337 O   0  0  0  0  0  0  0  0  0  0  0  0
  -32.9420   56.7140   70.2133 C   0  0  0  0  0  0  0  0  0  0  0  0
  -32.6028   56.4757   66.8523 O   0  5  0  0  0  0  0  0  0  0  0  0
  -33.5312   55.8060   71.2687 C   0  0  0  0  0  0  0  0  0  0  0  0
  -33.7700   56.5457   69.0386 O   0  0  0  0  0  0  0  0  0  0  0  0
  -34.3533   54.0670   69.6981 C   0  0  0  0  0  0  0  0  0  0  0  0
  -32.8966   58.6625   68.1238 O   0  0  0  0  0  0  0  0  0  0  0  0
  -34.1833   53.5740   72.0702 C   0  0  0  0  0  0  0  0  0  0  0  0
  -38.6880   58.8520   65.7154 O   0  0  0  0  0  0  0  0  0  0  0  0
  -32.1639   53.8330   70.7262 C   0  0  0  0  0  0  0  0  0  0  0  0
  -40.2020   58.6418   67.3381 O   0  0  0  0  0  0  0  0  0  0  0  0
  -37.5652   58.5992   66.5892 C   0  0  0  0  0  0  0  0  0  0  0  0
  -39.8694   59.0915   66.2844 C   0  0  0  0  0  0  0  0  0  0  0  0
  -40.7200   59.9800   65.4370 C   0  0  0  0  0  0  0  0  0  0  0  0
  -42.0280   59.3300   65.0270 C   0  0  0  0  0  0  0  0  0  0  0  0
  -42.8960   58.9560   66.2090 C   0  0  0  0  0  0  0  0  0  0  0  0
  -44.2012   58.2902   65.8416 C   0  0  0  0  0  0  0  0  0  0  0  0
  -44.0348   56.9933   65.0915 C   0  0  0  0  0  0  0  0  0  0  0  0
  -45.3544   56.3674   64.7274 C   0  0  0  0  0  0  0  0  0  0  0  0
  -46.2363   57.1945   63.8396 C   0  0  0  0  0  0  0  0  0  0  0  0
  -45.6280   57.5022   62.5372 C   0  0  0  0  0  0  0  0  0  0  0  0
  -44.7591   56.7840   61.8606 C   0  0  0  0  0  0  0  0  0  0  0  0
  -44.1833   55.4648   62.2250 C   0  0  0  0  0  0  0  0  0  0  0  0
  -42.6758   55.4282   62.3718 C   0  0  0  0  0  0  0  0  0  0  0  0
  -42.1592   54.0605   62.7246 C   0  0  0  0  0  0  0  0  0  0  0  0
  -42.7021   53.4953   64.0121 C   0  0  0  0  0  0  0  0  0  0  0  0
  -44.2064   53.3368   63.9891 C   0  0  0  0  0  0  0  0  0  0  0  0
  -44.7296   52.4112   62.9264 C   0  0  0  0  0  0  0  0  0  0  0  0
  -44.2269   51.0297   63.0598 C   0  0  0  0  0  0  0  0  0  0  0  0
  -44.5979   50.3967   64.3238 C   0  0  0  0  0  0  0  0  0  0  0  0
  -37.8708   56.5578   66.4504 H   0  0  0  0  0  0  0  0  0  0  0  0
  -35.8848   57.7887   64.7707 H   0  0  0  0  0  0  0  0  0  0  0  0
  -35.6360   55.7426   66.8431 H   0  0  0  0  0  0  0  0  0  0  0  0
  -36.2039   56.7383   68.1532 H   0  0  0  0  0  0  0  0  0  0  0  0
  -31.9322   56.4312   70.0005 H   0  0  0  0  0  0  0  0  0  0  0  0
  -32.9230   57.7334   70.5379 H   0  0  0  0  0  0  0  0  0  0  0  0
  -32.9571   55.9296   72.1631 H   0  0  0  0  0  0  0  0  0  0  0  0
  -34.5562   56.0995   71.3591 H   0  0  0  0  0  0  0  0  0  0  0  0
  -35.3555   54.4156   69.8359 H   0  0  0  0  0  0  0  0  0  0  0  0
  -34.3657   53.0163   69.4963 H   0  0  0  0  0  0  0  0  0  0  0  0
  -33.9062   54.5832   68.8744 H   0  0  0  0  0  0  0  0  0  0  0  0
  -32.6753   59.1822   67.3353 H   0  0  0  0  0  0  0  0  0  0  0  0
  -35.1823   53.9247   72.2249 H   0  0  0  0  0  0  0  0  0  0  0  0
  -33.6093   53.7282   72.9600 H   0  0  0  0  0  0  0  0  0  0  0  0
  -34.2040   52.5302   71.8356 H   0  0  0  0  0  0  0  0  0  0  0  0
  -31.7149   54.3698   69.9167 H   0  0  0  0  0  0  0  0  0  0  0  0
  -32.1864   52.7890   70.4927 H   0  0  0  0  0  0  0  0  0  0  0  0
  -31.5917   53.9870   71.6171 H   0  0  0  0  0  0  0  0  0  0  0  0
  -36.7985   59.3265   66.4216 H   0  0  0  0  0  0  0  0  0  0  0  0
  -37.8594   58.6619   67.6160 H   0  0  0  0  0  0  0  0  0  0  0  0
  -40.1733   60.2341   64.5530 H   0  0  0  0  0  0  0  0  0  0  0  0
  -40.9602   60.8449   66.0193 H   0  0  0  0  0  0  0  0  0  0  0  0
  -41.8086   58.4429   64.4703 H   0  0  0  0  0  0  0  0  0  0  0  0
  -42.5713   60.0428   64.4426 H   0  0  0  0  0  0  0  0  0  0  0  0
  -43.1183   59.8483   66.7560 H   0  0  0  0  0  0  0  0  0  0  0  0
  -42.3406   58.2423   66.7808 H   0  0  0  0  0  0  0  0  0  0  0  0
  -44.7626   58.9643   65.2288 H   0  0  0  0  0  0  0  0  0  0  0  0
  -44.7001   58.0569   66.7589 H   0  0  0  0  0  0  0  0  0  0  0  0
  -43.4877   56.3089   65.7056 H   0  0  0  0  0  0  0  0  0  0  0  0
  -43.5133   57.2072   64.1820 H   0  0  0  0  0  0  0  0  0  0  0  0
  -45.8884   56.1724   65.6339 H   0  0  0  0  0  0  0  0  0  0  0  0
  -45.1181   55.4858   64.1690 H   0  0  0  0  0  0  0  0  0  0  0  0
  -46.4526   58.1157   64.3393 H   0  0  0  0  0  0  0  0  0  0  0  0
  -47.1196   56.6216   63.6488 H   0  0  0  0  0  0  0  0  0  0  0  0
  -45.9186   58.3908   62.1003 H   0  0  0  0  0  0  0  0  0  0  0  0
  -44.4377   57.1866   60.9664 H   0  0  0  0  0  0  0  0  0  0  0  0
  -44.4573   54.7642   61.4640 H   0  0  0  0  0  0  0  0  0  0  0  0
  -44.5780   55.2293   63.1912 H   0  0  0  0  0  0  0  0  0  0  0  0
  -42.3906   56.1114   63.1443 H   0  0  0  0  0  0  0  0  0  0  0  0
  -42.2528   55.6993   61.4272 H   0  0  0  0  0  0  0  0  0  0  0  0
  -41.0941   54.1179   62.8087 H   0  0  0  0  0  0  0  0  0  0  0  0
  -42.4850   53.4039   61.9451 H   0  0  0  0  0  0  0  0  0  0  0  0
  -42.4391   54.1539   64.8134 H   0  0  0  0  0  0  0  0  0  0  0  0
  -42.2757   52.5229   64.1446 H   0  0  0  0  0  0  0  0  0  0  0  0
  -44.6399   54.3023   63.8317 H   0  0  0  0  0  0  0  0  0  0  0  0
  -44.4763   52.8991   64.9275 H   0  0  0  0  0  0  0  0  0  0  0  0
  -44.4342   52.7898   61.9702 H   0  0  0  0  0  0  0  0  0  0  0  0
  -45.7936   52.3741   63.0327 H   0  0  0  0  0  0  0  0  0  0  0  0
  -43.1593   51.0490   62.9906 H   0  0  0  0  0  0  0  0  0  0  0  0
  -44.6725   50.4542   62.2755 H   0  0  0  0  0  0  0  0  0  0  0  0
  -44.1696   50.9452   65.1366 H   0  0  0  0  0  0  0  0  0  0  0  0
  -44.2323   49.3913   64.3401 H   0  0  0  0  0  0  0  0  0  0  0  0
  -45.6636   50.3903   64.4202 H   0  0  0  0  0  0  0  0  0  0  0  0
  1  9  1  0  0  0  0
  1 11  1  0  0  0  0
  1 13  1  0  0  0  0
  1 15  1  0  0  0  0
  2  3  1  0  0  0  0
  2  5  1  0  0  0  0
  2 17  1  0  0  0  0
  2 36  1  1  0  0  0
  3 37  1  0  0  0  0
  4  6  1  0  0  0  0
  4  8  2  6  0  0  0
  4 10  1  0  0  0  0
  4 12  1  0  0  0  0
  5  6  1  0  0  0  0
  5 38  1  0  0  0  0
  5 39  1  0  0  0  0
  7  9  1  0  0  0  0
  7 10  1  0  0  0  0
  7 40  1  0  0  0  0
  7 41  1  0  0  0  0
  9 42  1  0  0  0  0
  9 43  1  0  0  0  0
 11 44  1  0  0  0  0
 11 45  1  0  0  0  0
 11 46  1  0  0  0  0
 12 47  1  0  0  0  0
 13 48  1  0  0  0  0
 13 49  1  0  0  0  0
 13 50  1  0  0  0  0
 14 17  1  0  0  0  0
 14 18  1  0  0  0  0
 15 51  1  0  0  0  0
 15 52  1  0  0  0  0
 15 53  1  0  0  0  0
 16 18  2  0  0  0  0
 17 54  1  0  0  0  0
 17 55  1  0  0  0  0
 18 19  1  0  0  0  0
 19 20  1  0  0  0  0
 19 56  1  0  0  0  0
 19 57  1  0  0  0  0
 20 21  1  0  0  0  0
 20 58  1  0  0  0  0
 20 59  1  0  0  0  0
 21 22  1  0  0  0  0
 21 60  1  0  0  0  0
 21 61  1  0  0  0  0
 22 23  1  0  0  0  0
 22 62  1  0  0  0  0
 22 63  1  0  0  0  0
 23 24  1  0  0  0  0
 23 64  1  0  0  0  0
 23 65  1  0  0  0  0
 24 25  1  0  0  0  0
 24 66  1  0  0  0  0
 24 67  1  0  0  0  0
 25 26  1  0  0  0  0
 25 68  1  0  0  0  0
 25 69  1  0  0  0  0
 26 27  2  0  0  0  0
 26 70  1  0  0  0  0
 27 28  1  0  0  0  0
 27 71  1  0  0  0  0
 28 29  1  0  0  0  0
 28 72  1  0  0  0  0
 28 73  1  0  0  0  0
 29 30  1  0  0  0  0
 29 74  1  0  0  0  0
 29 75  1  0  0  0  0
 30 31  1  0  0  0  0
 30 76  1  0  0  0  0
 30 77  1  0  0  0  0
 31 32  1  0  0  0  0
 31 78  1  0  0  0  0
 31 79  1  0  0  0  0
 32 33  1  0  0  0  0
 32 80  1  0  0  0  0
 32 81  1  0  0  0  0
 33 34  1  0  0  0  0
 33 82  1  0  0  0  0
 33 83  1  0  0  0  0
 34 35  1  0  0  0  0
 34 84  1  0  0  0  0
 34 85  1  0  0  0  0
 35 86  1  0  0  0  0
 35 87  1  0  0  0  0
 35 88  1  0  0  0  0
M  CHG  1   8  -1
M  END
$$$$