/media/chris/experiments/cd1a-new-docking/inputs/ligands/4x6c_ligand.pdb
 OpenBabel07012320263D

 88 87  0  0  1  0  0  0  0  0999 V2000
  -41.4099   59.9557   73.2592 N   0  0  0  0  0  4  0  0  0  0  0  0
  -40.6580   62.5330   69.3435 C   0  0  1  0  0  0  0  0  0  0  0  0
  -40.3998   61.4219   70.2019 O   0  0  0  0  0  0  0  0  0  0  0  0
  -38.4060   62.6082   71.3925 P   0  0  2  0  0  0  0  0  0  0  0  0
  -40.3522   63.8015   70.1025 C   0  0  0  0  0  0  0  0  0  0  0  0
  -38.9607   63.7865   70.4796 O   0  0  0  0  0  0  0  0  0  0  0  0
  -39.3598   61.4767   73.5596 C   0  0  0  0  0  0  0  0  0  0  0  0
  -37.9420   61.5394   70.4850 O   0  5  0  0  0  0  0  0  0  0  0  0
  -40.7029   61.0165   74.0793 C   0  0  0  0  0  0  0  0  0  0  0  0
  -39.6123   62.0352   72.2489 O   0  0  0  0  0  0  0  0  0  0  0  0
  -41.6613   60.4312   71.8644 C   0  0  0  0  0  0  0  0  0  0  0  0
  -37.4487   63.2147   72.3383 O   0  0  0  0  0  0  0  0  0  0  0  0
  -42.7221   59.6243   73.8947 C   0  0  0  0  0  0  0  0  0  0  0  0
  -40.3652   61.1401   67.4389 O   0  0  0  0  0  0  0  0  0  0  0  0
  -40.5647   58.7222   73.1993 C   0  0  0  0  0  0  0  0  0  0  0  0
  -41.4971   62.1961   65.8348 O   0  0  0  0  0  0  0  0  0  0  0  0
  -39.8927   62.3604   68.0517 C   0  0  0  0  0  0  0  0  0  0  0  0
  -40.9154   61.2318   66.2282 C   0  0  0  0  0  0  0  0  0  0  0  0
  -40.7200   59.9800   65.4370 C   0  0  0  0  0  0  0  0  0  0  0  0
  -42.0280   59.3300   65.0270 C   0  0  0  0  0  0  0  0  0  0  0  0
  -42.8960   58.9560   66.2090 C   0  0  0  0  0  0  0  0  0  0  0  0
  -44.2012   58.2902   65.8416 C   0  0  0  0  0  0  0  0  0  0  0  0
  -44.0348   56.9933   65.0915 C   0  0  0  0  0  0  0  0  0  0  0  0
  -45.3544   56.3674   64.7274 C   0  0  0  0  0  0  0  0  0  0  0  0
  -46.2363   57.1945   63.8396 C   0  0  0  0  0  0  0  0  0  0  0  0
  -47.5188   56.5478   63.5264 C   0  0  0  0  0  0  0  0  0  0  0  0
  -48.2446   56.6761   62.4376 C   0  0  0  0  0  0  0  0  0  0  0  0
  -47.9470   57.4897   61.2318 C   0  0  0  0  0  0  0  0  0  0  0  0
  -48.9641   58.5624   60.9003 C   0  0  0  0  0  0  0  0  0  0  0  0
  -48.6099   59.3360   59.6601 C   0  0  0  0  0  0  0  0  0  0  0  0
  -47.2818   60.0462   59.7190 C   0  0  0  0  0  0  0  0  0  0  0  0
  -46.1219   59.0951   59.9154 C   0  0  0  0  0  0  0  0  0  0  0  0
  -45.9496   58.0730   58.8266 C   0  0  0  0  0  0  0  0  0  0  0  0
  -45.6995   58.6722   57.5009 C   0  0  0  0  0  0  0  0  0  0  0  0
  -44.4840   59.4823   57.4502 C   0  0  0  0  0  0  0  0  0  0  0  0
  -41.6867   62.5934   69.0553 H   0  0  0  0  0  0  0  0  0  0  0  0
  -39.4589   61.4066   70.4369 H   0  0  0  0  0  0  0  0  0  0  0  0
  -40.9631   63.8533   70.9794 H   0  0  0  0  0  0  0  0  0  0  0  0
  -40.5558   64.6537   69.4882 H   0  0  0  0  0  0  0  0  0  0  0  0
  -38.6850   60.6495   73.4881 H   0  0  0  0  0  0  0  0  0  0  0  0
  -38.9108   62.1953   74.2131 H   0  0  0  0  0  0  0  0  0  0  0  0
  -40.5549   60.6236   75.0634 H   0  0  0  0  0  0  0  0  0  0  0  0
  -41.3359   61.8782   74.0396 H   0  0  0  0  0  0  0  0  0  0  0  0
  -42.2654   61.3140   71.8920 H   0  0  0  0  0  0  0  0  0  0  0  0
  -42.1701   59.6679   71.3136 H   0  0  0  0  0  0  0  0  0  0  0  0
  -40.7284   60.6522   71.3894 H   0  0  0  0  0  0  0  0  0  0  0  0
  -36.6946   63.5771   71.8474 H   0  0  0  0  0  0  0  0  0  0  0  0
  -43.3292   60.5043   73.9392 H   0  0  0  0  0  0  0  0  0  0  0  0
  -42.5556   59.2554   74.8853 H   0  0  0  0  0  0  0  0  0  0  0  0
  -43.2205   58.8760   73.3146 H   0  0  0  0  0  0  0  0  0  0  0  0
  -39.6246   58.9558   72.7449 H   0  0  0  0  0  0  0  0  0  0  0  0
  -41.0650   57.9748   72.6198 H   0  0  0  0  0  0  0  0  0  0  0  0
  -40.4001   58.3541   74.1904 H   0  0  0  0  0  0  0  0  0  0  0  0
  -38.8442   62.2882   68.2528 H   0  0  0  0  0  0  0  0  0  0  0  0
  -40.0463   63.1972   67.4028 H   0  0  0  0  0  0  0  0  0  0  0  0
  -40.1644   59.2843   66.0305 H   0  0  0  0  0  0  0  0  0  0  0  0
  -40.1985   60.2448   64.5410 H   0  0  0  0  0  0  0  0  0  0  0  0
  -41.8086   58.4429   64.4703 H   0  0  0  0  0  0  0  0  0  0  0  0
  -42.5713   60.0428   64.4426 H   0  0  0  0  0  0  0  0  0  0  0  0
  -43.1183   59.8483   66.7560 H   0  0  0  0  0  0  0  0  0  0  0  0
  -42.3406   58.2423   66.7808 H   0  0  0  0  0  0  0  0  0  0  0  0
  -44.7626   58.9643   65.2288 H   0  0  0  0  0  0  0  0  0  0  0  0
  -44.7001   58.0569   66.7589 H   0  0  0  0  0  0  0  0  0  0  0  0
  -43.4877   56.3089   65.7056 H   0  0  0  0  0  0  0  0  0  0  0  0
  -43.5133   57.2072   64.1820 H   0  0  0  0  0  0  0  0  0  0  0  0
  -45.8884   56.1724   65.6339 H   0  0  0  0  0  0  0  0  0  0  0  0
  -45.1181   55.4858   64.1690 H   0  0  0  0  0  0  0  0  0  0  0  0
  -45.7168   57.3799   62.9228 H   0  0  0  0  0  0  0  0  0  0  0  0
  -46.4585   58.0982   64.3678 H   0  0  0  0  0  0  0  0  0  0  0  0
  -47.8956   55.9155   64.2497 H   0  0  0  0  0  0  0  0  0  0  0  0
  -49.1299   56.1462   62.4188 H   0  0  0  0  0  0  0  0  0  0  0  0
  -47.8827   56.8265   60.3945 H   0  0  0  0  0  0  0  0  0  0  0  0
  -47.0344   58.0063   61.4445 H   0  0  0  0  0  0  0  0  0  0  0  0
  -49.0234   59.2437   61.7233 H   0  0  0  0  0  0  0  0  0  0  0  0
  -49.8999   58.0756   60.7209 H   0  0  0  0  0  0  0  0  0  0  0  0
  -49.3725   60.0682   59.4947 H   0  0  0  0  0  0  0  0  0  0  0  0
  -48.5352   58.6201   58.8683 H   0  0  0  0  0  0  0  0  0  0  0  0
  -47.2992   60.7385   60.5346 H   0  0  0  0  0  0  0  0  0  0  0  0
  -47.1383   60.5434   58.7824 H   0  0  0  0  0  0  0  0  0  0  0  0
  -46.2711   58.5752   60.8386 H   0  0  0  0  0  0  0  0  0  0  0  0
  -45.2365   59.6958   59.9057 H   0  0  0  0  0  0  0  0  0  0  0  0
  -46.8401   57.4825   58.7704 H   0  0  0  0  0  0  0  0  0  0  0  0
  -45.0919   57.4839   59.0762 H   0  0  0  0  0  0  0  0  0  0  0  0
  -46.5325   59.2941   57.2472 H   0  0  0  0  0  0  0  0  0  0  0  0
  -45.5711   57.8662   56.8089 H   0  0  0  0  0  0  0  0  0  0  0  0
  -44.5734   60.3026   58.1315 H   0  0  0  0  0  0  0  0  0  0  0  0
  -44.3461   59.8567   56.4574 H   0  0  0  0  0  0  0  0  0  0  0  0
  -43.6428   58.8808   57.7247 H   0  0  0  0  0  0  0  0  0  0  0  0
  1  9  1  0  0  0  0
  1 11  1  0  0  0  0
  1 13  1  0  0  0  0
  1 15  1  0  0  0  0
  2  3  1  0  0  0  0
  2  5  1  0  0  0  0
  2 17  1  0  0  0  0
  2 36  1  6  0  0  0
  3 37  1  0  0  0  0
  4  6  1  0  0  0  0
  4  8  2  6  0  0  0
  4 10  1  0  0  0  0
  4 12  1  0  0  0  0
  5  6  1  0  0  0  0
  5 38  1  0  0  0  0
  5 39  1  0  0  0  0
  7  9  1  0  0  0  0
  7 10  1  0  0  0  0
  7 40  1  0  0  0  0
  7 41  1  0  0  0  0
  9 42  1  0  0  0  0
  9 43  1  0  0  0  0
 11 44  1  0  0  0  0
 11 45  1  0  0  0  0
 11 46  1  0  0  0  0
 12 47  1  0  0  0  0
 13 48  1  0  0  0  0
 13 49  1  0  0  0  0
 13 50  1  0  0  0  0
 14 17  1  0  0  0  0
 14 18  1  0  0  0  0
 15 51  1  0  0  0  0
 15 52  1  0  0  0  0
 15 53  1  0  0  0  0
 16 18  2  0  0  0  0
 17 54  1  0  0  0  0
 17 55  1  0  0  0  0
 18 19  1  0  0  0  0
 19 20  1  0  0  0  0
 19 56  1  0  0  0  0
 19 57  1  0  0  0  0
 20 21  1  0  0  0  0
 20 58  1  0  0  0  0
 20 59  1  0  0  0  0
 21 22  1  0  0  0  0
 21 60  1  0  0  0  0
 21 61  1  0  0  0  0
 22 23  1  0  0  0  0
 22 62  1  0  0  0  0
 22 63  1  0  0  0  0
 23 24  1  0  0  0  0
 23 64  1  0  0  0  0
 23 65  1  0  0  0  0
 24 25  1  0  0  0  0
 24 66  1  0  0  0  0
 24 67  1  0  0  0  0
 25 26  1  0  0  0  0
 25 68  1  0  0  0  0
 25 69  1  0  0  0  0
 26 27  2  0  0  0  0
 26 70  1  0  0  0  0
 27 28  1  0  0  0  0
 27 71  1  0  0  0  0
 28 29  1  0  0  0  0
 28 72  1  0  0  0  0
 28 73  1  0  0  0  0
 29 30  1  0  0  0  0
 29 74  1  0  0  0  0
 29 75  1  0  0  0  0
 30 31  1  0  0  0  0
 30 76  1  0  0  0  0
 30 77  1  0  0  0  0
 31 32  1  0  0  0  0
 31 78  1  0  0  0  0
 31 79  1  0  0  0  0
 32 33  1  0  0  0  0
 32 80  1  0  0  0  0
 32 81  1  0  0  0  0
 33 34  1  0  0  0  0
 33 82  1  0  0  0  0
 33 83  1  0  0  0  0
 34 35  1  0  0  0  0
 34 84  1  0  0  0  0
 34 85  1  0  0  0  0
 35 86  1  0  0  0  0
 35 87  1  0  0  0  0
 35 88  1  0  0  0  0
M  CHG  1   8  -1
M  END
$$$$