/media/chris/experiments/cd1a-new-docking/inputs/ligands/4x6c_ligand.pdb
 OpenBabel07012320263D

 88 87  0  0  1  0  0  0  0  0999 V2000
  -36.7536   50.8693   65.6239 N   0  0  0  0  0  4  0  0  0  0  0  0
  -36.6839   58.0497   66.7661 C   0  0  1  0  0  0  0  0  0  0  0  0
  -35.7895   57.7501   67.8377 O   0  0  0  0  0  0  0  0  0  0  0  0
  -36.5558   54.4593   65.2351 P   0  0  2  0  0  0  0  0  0  0  0  0
  -37.2832   56.7559   66.2708 C   0  0  0  0  0  0  0  0  0  0  0  0
  -36.2146   55.8950   65.8281 O   0  0  0  0  0  0  0  0  0  0  0  0
  -35.4943   52.7194   66.8881 C   0  0  0  0  0  0  0  0  0  0  0  0
  -37.8009   54.0063   65.8874 O   0  5  0  0  0  0  0  0  0  0  0  0
  -36.7394   51.8713   66.7612 C   0  0  0  0  0  0  0  0  0  0  0  0
  -35.3935   53.4627   65.6508 O   0  0  0  0  0  0  0  0  0  0  0  0
  -35.6403   49.8812   65.7622 C   0  0  0  0  0  0  0  0  0  0  0  0
  -36.5184   54.5843   63.7647 O   0  0  0  0  0  0  0  0  0  0  0  0
  -36.5958   51.5877   64.3223 C   0  0  0  0  0  0  0  0  0  0  0  0
  -38.5713   59.3368   66.1067 O   0  0  0  0  0  0  0  0  0  0  0  0
  -38.0539   50.1285   65.6247 C   0  0  0  0  0  0  0  0  0  0  0  0
  -40.2919   58.2579   67.0258 O   0  0  0  0  0  0  0  0  0  0  0  0
  -37.6858   59.0860   67.2206 C   0  0  0  0  0  0  0  0  0  0  0  0
  -39.8694   59.0915   66.2844 C   0  0  0  0  0  0  0  0  0  0  0  0
  -40.7200   59.9800   65.4370 C   0  0  0  0  0  0  0  0  0  0  0  0
  -42.0280   59.3300   65.0270 C   0  0  0  0  0  0  0  0  0  0  0  0
  -42.8960   58.9560   66.2090 C   0  0  0  0  0  0  0  0  0  0  0  0
  -44.2012   58.2902   65.8416 C   0  0  0  0  0  0  0  0  0  0  0  0
  -45.0623   57.9388   67.0279 C   0  0  0  0  0  0  0  0  0  0  0  0
  -46.3454   57.2626   66.6256 C   0  0  0  0  0  0  0  0  0  0  0  0
  -47.2342   58.0573   65.7153 C   0  0  0  0  0  0  0  0  0  0  0  0
  -46.6024   58.3930   64.4311 C   0  0  0  0  0  0  0  0  0  0  0  0
  -46.3685   59.5869   63.9325 C   0  0  0  0  0  0  0  0  0  0  0  0
  -46.6608   60.9067   64.5464 C   0  0  0  0  0  0  0  0  0  0  0  0
  -45.4598   61.8020   64.7731 C   0  0  0  0  0  0  0  0  0  0  0  0
  -44.7432   62.1475   63.4967 C   0  0  0  0  0  0  0  0  0  0  0  0
  -43.5299   63.0241   63.6734 C   0  0  0  0  0  0  0  0  0  0  0  0
  -42.8559   63.3561   62.3603 C   0  0  0  0  0  0  0  0  0  0  0  0
  -42.3780   62.1666   61.5752 C   0  0  0  0  0  0  0  0  0  0  0  0
  -43.4670   61.2453   61.1949 C   0  0  0  0  0  0  0  0  0  0  0  0
  -44.4848   61.8673   60.3504 C   0  0  0  0  0  0  0  0  0  0  0  0
  -36.1827   58.4907   65.9298 H   0  0  0  0  0  0  0  0  0  0  0  0
  -36.2851   57.3537   68.5712 H   0  0  0  0  0  0  0  0  0  0  0  0
  -37.9474   56.9547   65.4558 H   0  0  0  0  0  0  0  0  0  0  0  0
  -37.8327   56.2823   67.0574 H   0  0  0  0  0  0  0  0  0  0  0  0
  -34.6330   52.0986   67.0207 H   0  0  0  0  0  0  0  0  0  0  0  0
  -35.5475   53.3713   67.7350 H   0  0  0  0  0  0  0  0  0  0  0  0
  -36.8596   51.3289   67.6757 H   0  0  0  0  0  0  0  0  0  0  0  0
  -37.5326   52.5572   66.5485 H   0  0  0  0  0  0  0  0  0  0  0  0
  -34.7032   50.3976   65.7632 H   0  0  0  0  0  0  0  0  0  0  0  0
  -35.6686   49.1949   64.9418 H   0  0  0  0  0  0  0  0  0  0  0  0
  -35.7524   49.3438   66.6807 H   0  0  0  0  0  0  0  0  0  0  0  0
  -37.2187   55.1891   63.4737 H   0  0  0  0  0  0  0  0  0  0  0  0
  -35.6669   52.1187   64.3183 H   0  0  0  0  0  0  0  0  0  0  0  0
  -37.4025   52.2794   64.1966 H   0  0  0  0  0  0  0  0  0  0  0  0
  -36.6052   50.8793   63.5205 H   0  0  0  0  0  0  0  0  0  0  0  0
  -38.1701   49.6130   66.5551 H   0  0  0  0  0  0  0  0  0  0  0  0
  -38.0619   49.4213   64.8217 H   0  0  0  0  0  0  0  0  0  0  0  0
  -38.8592   50.8214   65.4978 H   0  0  0  0  0  0  0  0  0  0  0  0
  -37.1810   59.9876   67.4987 H   0  0  0  0  0  0  0  0  0  0  0  0
  -38.2331   58.7393   68.0722 H   0  0  0  0  0  0  0  0  0  0  0  0
  -40.1733   60.2341   64.5530 H   0  0  0  0  0  0  0  0  0  0  0  0
  -40.9602   60.8449   66.0193 H   0  0  0  0  0  0  0  0  0  0  0  0
  -41.8086   58.4429   64.4703 H   0  0  0  0  0  0  0  0  0  0  0  0
  -42.5713   60.0428   64.4426 H   0  0  0  0  0  0  0  0  0  0  0  0
  -43.1183   59.8483   66.7560 H   0  0  0  0  0  0  0  0  0  0  0  0
  -42.3406   58.2423   66.7808 H   0  0  0  0  0  0  0  0  0  0  0  0
  -43.9814   57.3901   65.3063 H   0  0  0  0  0  0  0  0  0  0  0  0
  -44.7539   58.9929   65.2537 H   0  0  0  0  0  0  0  0  0  0  0  0
  -45.2991   58.8372   67.5587 H   0  0  0  0  0  0  0  0  0  0  0  0
  -44.5114   57.2554   67.6397 H   0  0  0  0  0  0  0  0  0  0  0  0
  -46.8964   57.0438   67.5164 H   0  0  0  0  0  0  0  0  0  0  0  0
  -46.0590   56.3928   66.0721 H   0  0  0  0  0  0  0  0  0  0  0  0
  -47.5005   58.9676   66.2107 H   0  0  0  0  0  0  0  0  0  0  0  0
  -48.0885   57.4506   65.4985 H   0  0  0  0  0  0  0  0  0  0  0  0
  -46.3061   57.5935   63.8496 H   0  0  0  0  0  0  0  0  0  0  0  0
  -45.9275   59.6093   62.9997 H   0  0  0  0  0  0  0  0  0  0  0  0
  -47.1261   60.7334   65.4943 H   0  0  0  0  0  0  0  0  0  0  0  0
  -47.2844   61.4238   63.8474 H   0  0  0  0  0  0  0  0  0  0  0  0
  -44.7758   61.2987   65.4240 H   0  0  0  0  0  0  0  0  0  0  0  0
  -45.8148   62.7160   65.2016 H   0  0  0  0  0  0  0  0  0  0  0  0
  -45.4317   62.6567   62.8551 H   0  0  0  0  0  0  0  0  0  0  0  0
  -44.3915   61.2234   63.0877 H   0  0  0  0  0  0  0  0  0  0  0  0
  -42.8276   62.5151   64.3000 H   0  0  0  0  0  0  0  0  0  0  0  0
  -43.8557   63.9440   64.1122 H   0  0  0  0  0  0  0  0  0  0  0  0
  -42.0106   63.9782   62.5686 H   0  0  0  0  0  0  0  0  0  0  0  0
  -43.5969   63.8363   61.7559 H   0  0  0  0  0  0  0  0  0  0  0  0
  -41.6697   61.6287   62.1701 H   0  0  0  0  0  0  0  0  0  0  0  0
  -41.9438   62.5366   60.6700 H   0  0  0  0  0  0  0  0  0  0  0  0
  -43.9378   60.8897   62.0876 H   0  0  0  0  0  0  0  0  0  0  0  0
  -43.0264   60.4527   60.6269 H   0  0  0  0  0  0  0  0  0  0  0  0
  -44.9508   62.6686   60.8850 H   0  0  0  0  0  0  0  0  0  0  0  0
  -45.2224   61.1388   60.0855 H   0  0  0  0  0  0  0  0  0  0  0  0
  -44.0265   62.2500   59.4625 H   0  0  0  0  0  0  0  0  0  0  0  0
  1  9  1  0  0  0  0
  1 11  1  0  0  0  0
  1 13  1  0  0  0  0
  1 15  1  0  0  0  0
  2  3  1  0  0  0  0
  2  5  1  0  0  0  0
  2 17  1  0  0  0  0
  2 36  1  6  0  0  0
  3 37  1  0  0  0  0
  4  6  1  0  0  0  0
  4  8  2  1  0  0  0
  4 10  1  0  0  0  0
  4 12  1  0  0  0  0
  5  6  1  0  0  0  0
  5 38  1  0  0  0  0
  5 39  1  0  0  0  0
  7  9  1  0  0  0  0
  7 10  1  0  0  0  0
  7 40  1  0  0  0  0
  7 41  1  0  0  0  0
  9 42  1  0  0  0  0
  9 43  1  0  0  0  0
 11 44  1  0  0  0  0
 11 45  1  0  0  0  0
 11 46  1  0  0  0  0
 12 47  1  0  0  0  0
 13 48  1  0  0  0  0
 13 49  1  0  0  0  0
 13 50  1  0  0  0  0
 14 17  1  0  0  0  0
 14 18  1  0  0  0  0
 15 51  1  0  0  0  0
 15 52  1  0  0  0  0
 15 53  1  0  0  0  0
 16 18  2  0  0  0  0
 17 54  1  0  0  0  0
 17 55  1  0  0  0  0
 18 19  1  0  0  0  0
 19 20  1  0  0  0  0
 19 56  1  0  0  0  0
 19 57  1  0  0  0  0
 20 21  1  0  0  0  0
 20 58  1  0  0  0  0
 20 59  1  0  0  0  0
 21 22  1  0  0  0  0
 21 60  1  0  0  0  0
 21 61  1  0  0  0  0
 22 23  1  0  0  0  0
 22 62  1  0  0  0  0
 22 63  1  0  0  0  0
 23 24  1  0  0  0  0
 23 64  1  0  0  0  0
 23 65  1  0  0  0  0
 24 25  1  0  0  0  0
 24 66  1  0  0  0  0
 24 67  1  0  0  0  0
 25 26  1  0  0  0  0
 25 68  1  0  0  0  0
 25 69  1  0  0  0  0
 26 27  2  0  0  0  0
 26 70  1  0  0  0  0
 27 28  1  0  0  0  0
 27 71  1  0  0  0  0
 28 29  1  0  0  0  0
 28 72  1  0  0  0  0
 28 73  1  0  0  0  0
 29 30  1  0  0  0  0
 29 74  1  0  0  0  0
 29 75  1  0  0  0  0
 30 31  1  0  0  0  0
 30 76  1  0  0  0  0
 30 77  1  0  0  0  0
 31 32  1  0  0  0  0
 31 78  1  0  0  0  0
 31 79  1  0  0  0  0
 32 33  1  0  0  0  0
 32 80  1  0  0  0  0
 32 81  1  0  0  0  0
 33 34  1  0  0  0  0
 33 82  1  0  0  0  0
 33 83  1  0  0  0  0
 34 35  1  0  0  0  0
 34 84  1  0  0  0  0
 34 85  1  0  0  0  0
 35 86  1  0  0  0  0
 35 87  1  0  0  0  0
 35 88  1  0  0  0  0
M  CHG  1   8  -1
M  END
$$$$