/media/chris/experiments/cd1a-new-docking/inputs/ligands/4x6c_ligand.pdb
 OpenBabel07012320263D

 88 87  0  0  1  0  0  0  0  0999 V2000
  -43.3644   64.0381   64.7391 N   0  0  0  0  0  4  0  0  0  0  0  0
  -40.0648   63.3731   68.1986 C   0  0  1  0  0  0  0  0  0  0  0  0
  -40.8922   63.1044   69.3306 O   0  0  0  0  0  0  0  0  0  0  0  0
  -41.0094   66.2376   67.7774 P   0  0  2  0  0  0  0  0  0  0  0  0
  -39.1631   64.5362   68.5339 C   0  0  0  0  0  0  0  0  0  0  0  0
  -39.9851   65.6760   68.8566 O   0  0  0  0  0  0  0  0  0  0  0  0
  -41.4081   65.6227   65.2576 C   0  0  0  0  0  0  0  0  0  0  0  0
  -42.2905   65.5340   67.9894 O   0  5  0  0  0  0  0  0  0  0  0  0
  -42.2938   64.4857   65.7143 C   0  0  0  0  0  0  0  0  0  0  0  0
  -40.4708   65.8524   66.3357 O   0  0  0  0  0  0  0  0  0  0  0  0
  -42.7601   63.5516   63.4612 C   0  0  0  0  0  0  0  0  0  0  0  0
  -40.9720   67.7098   67.8783 O   0  0  0  0  0  0  0  0  0  0  0  0
  -44.2724   65.1854   64.4318 C   0  0  0  0  0  0  0  0  0  0  0  0
  -40.3652   61.1401   67.4389 O   0  0  0  0  0  0  0  0  0  0  0  0
  -44.1614   62.9261   65.3453 C   0  0  0  0  0  0  0  0  0  0  0  0
  -41.4971   62.1961   65.8348 O   0  0  0  0  0  0  0  0  0  0  0  0
  -39.3494   62.1074   67.7856 C   0  0  0  0  0  0  0  0  0  0  0  0
  -40.9154   61.2318   66.2282 C   0  0  0  0  0  0  0  0  0  0  0  0
  -40.7200   59.9800   65.4370 C   0  0  0  0  0  0  0  0  0  0  0  0
  -42.0280   59.3300   65.0270 C   0  0  0  0  0  0  0  0  0  0  0  0
  -42.8960   58.9560   66.2090 C   0  0  0  0  0  0  0  0  0  0  0  0
  -42.2531   57.9915   67.1776 C   0  0  0  0  0  0  0  0  0  0  0  0
  -40.9882   58.5136   67.8098 C   0  0  0  0  0  0  0  0  0  0  0  0
  -41.2206   59.7695   68.6062 C   0  0  0  0  0  0  0  0  0  0  0  0
  -40.0010   60.3572   69.2522 C   0  0  0  0  0  0  0  0  0  0  0  0
  -39.3383   59.4392   70.1898 C   0  0  0  0  0  0  0  0  0  0  0  0
  -38.2648   59.6605   70.9159 C   0  0  0  0  0  0  0  0  0  0  0  0
  -37.4556   60.9029   70.9951 C   0  0  0  0  0  0  0  0  0  0  0  0
  -38.1932   62.1327   71.4836 C   0  0  0  0  0  0  0  0  0  0  0  0
  -38.7403   61.9680   72.8749 C   0  0  0  0  0  0  0  0  0  0  0  0
  -39.4977   63.1612   73.3988 C   0  0  0  0  0  0  0  0  0  0  0  0
  -40.7069   63.4989   72.5547 C   0  0  0  0  0  0  0  0  0  0  0  0
  -41.7408   62.4113   72.4656 C   0  0  0  0  0  0  0  0  0  0  0  0
  -42.8953   62.7744   71.6202 C   0  0  0  0  0  0  0  0  0  0  0  0
  -43.6042   63.9646   72.0864 C   0  0  0  0  0  0  0  0  0  0  0  0
  -40.6327   63.6679   67.3410 H   0  0  0  0  0  0  0  0  0  0  0  0
  -40.3374   62.8418   70.0816 H   0  0  0  0  0  0  0  0  0  0  0  0
  -38.5425   64.7656   67.6929 H   0  0  0  0  0  0  0  0  0  0  0  0
  -38.5391   64.2874   69.3668 H   0  0  0  0  0  0  0  0  0  0  0  0
  -41.9925   66.5011   65.0789 H   0  0  0  0  0  0  0  0  0  0  0  0
  -40.9052   65.3862   64.3433 H   0  0  0  0  0  0  0  0  0  0  0  0
  -41.6653   63.6440   65.9182 H   0  0  0  0  0  0  0  0  0  0  0  0
  -42.8212   64.8585   66.5674 H   0  0  0  0  0  0  0  0  0  0  0  0
  -42.1865   64.3376   63.0160 H   0  0  0  0  0  0  0  0  0  0  0  0
  -43.5379   63.2534   62.7896 H   0  0  0  0  0  0  0  0  0  0  0  0
  -42.1234   62.7158   63.6632 H   0  0  0  0  0  0  0  0  0  0  0  0
  -41.2960   67.9825   68.7510 H   0  0  0  0  0  0  0  0  0  0  0  0
  -43.7056   65.9826   63.9981 H   0  0  0  0  0  0  0  0  0  0  0  0
  -44.7343   65.5264   65.3347 H   0  0  0  0  0  0  0  0  0  0  0  0
  -45.0271   64.8684   63.7428 H   0  0  0  0  0  0  0  0  0  0  0  0
  -43.5145   62.1030   65.5665 H   0  0  0  0  0  0  0  0  0  0  0  0
  -44.9163   62.6110   64.6555 H   0  0  0  0  0  0  0  0  0  0  0  0
  -44.6235   63.2691   66.2474 H   0  0  0  0  0  0  0  0  0  0  0  0
  -38.7545   61.7407   68.5959 H   0  0  0  0  0  0  0  0  0  0  0  0
  -38.6985   62.2906   66.9563 H   0  0  0  0  0  0  0  0  0  0  0  0
  -40.1644   59.2843   66.0305 H   0  0  0  0  0  0  0  0  0  0  0  0
  -40.1985   60.2448   64.5410 H   0  0  0  0  0  0  0  0  0  0  0  0
  -41.8086   58.4429   64.4703 H   0  0  0  0  0  0  0  0  0  0  0  0
  -42.5713   60.0428   64.4426 H   0  0  0  0  0  0  0  0  0  0  0  0
  -43.7930   58.5073   65.8363 H   0  0  0  0  0  0  0  0  0  0  0  0
  -43.0753   59.8597   66.7531 H   0  0  0  0  0  0  0  0  0  0  0  0
  -42.0192   57.0902   66.6505 H   0  0  0  0  0  0  0  0  0  0  0  0
  -42.9543   57.8333   67.9702 H   0  0  0  0  0  0  0  0  0  0  0  0
  -40.2789   58.7234   67.0366 H   0  0  0  0  0  0  0  0  0  0  0  0
  -40.6258   57.7638   68.4816 H   0  0  0  0  0  0  0  0  0  0  0  0
  -41.9270   59.5449   69.3779 H   0  0  0  0  0  0  0  0  0  0  0  0
  -41.5656   60.5021   67.9069 H   0  0  0  0  0  0  0  0  0  0  0  0
  -40.2911   61.2374   69.7870 H   0  0  0  0  0  0  0  0  0  0  0  0
  -39.3014   60.5713   68.4714 H   0  0  0  0  0  0  0  0  0  0  0  0
  -39.7685   58.5065   70.2904 H   0  0  0  0  0  0  0  0  0  0  0  0
  -37.9454   58.8742   71.5029 H   0  0  0  0  0  0  0  0  0  0  0  0
  -37.0774   61.1126   70.0164 H   0  0  0  0  0  0  0  0  0  0  0  0
  -36.6931   60.7105   71.7207 H   0  0  0  0  0  0  0  0  0  0  0  0
  -39.0066   62.3311   70.8174 H   0  0  0  0  0  0  0  0  0  0  0  0
  -37.4930   62.9415   71.5057 H   0  0  0  0  0  0  0  0  0  0  0  0
  -37.9201   61.7776   73.5352 H   0  0  0  0  0  0  0  0  0  0  0  0
  -39.4410   61.1606   72.8306 H   0  0  0  0  0  0  0  0  0  0  0  0
  -38.8411   64.0059   73.4104 H   0  0  0  0  0  0  0  0  0  0  0  0
  -39.8457   62.9184   74.3811 H   0  0  0  0  0  0  0  0  0  0  0  0
  -40.3693   63.7185   71.5634 H   0  0  0  0  0  0  0  0  0  0  0  0
  -41.1845   64.3283   73.0332 H   0  0  0  0  0  0  0  0  0  0  0  0
  -42.0956   62.1977   73.4522 H   0  0  0  0  0  0  0  0  0  0  0  0
  -41.2711   61.5622   72.0147 H   0  0  0  0  0  0  0  0  0  0  0  0
  -43.5808   61.9530   71.6113 H   0  0  0  0  0  0  0  0  0  0  0  0
  -42.5155   62.9948   70.6445 H   0  0  0  0  0  0  0  0  0  0  0  0
  -44.0007   63.7837   73.0636 H   0  0  0  0  0  0  0  0  0  0  0  0
  -44.4045   64.1897   71.4128 H   0  0  0  0  0  0  0  0  0  0  0  0
  -42.9263   64.7916   72.1240 H   0  0  0  0  0  0  0  0  0  0  0  0
  1  9  1  0  0  0  0
  1 11  1  0  0  0  0
  1 13  1  0  0  0  0
  1 15  1  0  0  0  0
  2  3  1  0  0  0  0
  2  5  1  0  0  0  0
  2 17  1  0  0  0  0
  2 36  1  6  0  0  0
  3 37  1  0  0  0  0
  4  6  1  0  0  0  0
  4  8  2  1  0  0  0
  4 10  1  0  0  0  0
  4 12  1  0  0  0  0
  5  6  1  0  0  0  0
  5 38  1  0  0  0  0
  5 39  1  0  0  0  0
  7  9  1  0  0  0  0
  7 10  1  0  0  0  0
  7 40  1  0  0  0  0
  7 41  1  0  0  0  0
  9 42  1  0  0  0  0
  9 43  1  0  0  0  0
 11 44  1  0  0  0  0
 11 45  1  0  0  0  0
 11 46  1  0  0  0  0
 12 47  1  0  0  0  0
 13 48  1  0  0  0  0
 13 49  1  0  0  0  0
 13 50  1  0  0  0  0
 14 17  1  0  0  0  0
 14 18  1  0  0  0  0
 15 51  1  0  0  0  0
 15 52  1  0  0  0  0
 15 53  1  0  0  0  0
 16 18  2  0  0  0  0
 17 54  1  0  0  0  0
 17 55  1  0  0  0  0
 18 19  1  0  0  0  0
 19 20  1  0  0  0  0
 19 56  1  0  0  0  0
 19 57  1  0  0  0  0
 20 21  1  0  0  0  0
 20 58  1  0  0  0  0
 20 59  1  0  0  0  0
 21 22  1  0  0  0  0
 21 60  1  0  0  0  0
 21 61  1  0  0  0  0
 22 23  1  0  0  0  0
 22 62  1  0  0  0  0
 22 63  1  0  0  0  0
 23 24  1  0  0  0  0
 23 64  1  0  0  0  0
 23 65  1  0  0  0  0
 24 25  1  0  0  0  0
 24 66  1  0  0  0  0
 24 67  1  0  0  0  0
 25 26  1  0  0  0  0
 25 68  1  0  0  0  0
 25 69  1  0  0  0  0
 26 27  2  0  0  0  0
 26 70  1  0  0  0  0
 27 28  1  0  0  0  0
 27 71  1  0  0  0  0
 28 29  1  0  0  0  0
 28 72  1  0  0  0  0
 28 73  1  0  0  0  0
 29 30  1  0  0  0  0
 29 74  1  0  0  0  0
 29 75  1  0  0  0  0
 30 31  1  0  0  0  0
 30 76  1  0  0  0  0
 30 77  1  0  0  0  0
 31 32  1  0  0  0  0
 31 78  1  0  0  0  0
 31 79  1  0  0  0  0
 32 33  1  0  0  0  0
 32 80  1  0  0  0  0
 32 81  1  0  0  0  0
 33 34  1  0  0  0  0
 33 82  1  0  0  0  0
 33 83  1  0  0  0  0
 34 35  1  0  0  0  0
 34 84  1  0  0  0  0
 34 85  1  0  0  0  0
 35 86  1  0  0  0  0
 35 87  1  0  0  0  0
 35 88  1  0  0  0  0
M  CHG  1   8  -1
M  END
$$$$