/media/chris/experiments/cd1a-new-docking/inputs/ligands/4x6c_ligand.pdb
 OpenBabel07012320263D

 88 87  0  0  1  0  0  0  0  0999 V2000
  -32.0609   59.0670   63.5304 N   0  0  0  0  0  4  0  0  0  0  0  0
  -37.2129   60.6294   65.7045 C   0  0  1  0  0  0  0  0  0  0  0  0
  -37.5688   61.4423   66.8229 O   0  0  0  0  0  0  0  0  0  0  0  0
  -35.5882   58.5950   67.2846 P   0  0  2  0  0  0  0  0  0  0  0  0
  -37.7458   59.2369   65.9398 C   0  0  0  0  0  0  0  0  0  0  0  0
  -37.1682   58.7241   67.1573 O   0  0  0  0  0  0  0  0  0  0  0  0
  -33.6584   58.9403   65.5401 C   0  0  0  0  0  0  0  0  0  0  0  0
  -35.0940   59.8674   67.8485 O   0  5  0  0  0  0  0  0  0  0  0  0
  -33.4101   58.6457   64.0782 C   0  0  0  0  0  0  0  0  0  0  0  0
  -34.9849   58.4377   65.8257 O   0  0  0  0  0  0  0  0  0  0  0  0
  -30.9476   58.3722   64.2465 C   0  0  0  0  0  0  0  0  0  0  0  0
  -35.3190   57.3357   68.0062 O   0  0  0  0  0  0  0  0  0  0  0  0
  -31.8908   60.5426   63.7002 C   0  0  0  0  0  0  0  0  0  0  0  0
  -39.1217   61.4343   64.5373 O   0  0  0  0  0  0  0  0  0  0  0  0
  -31.9815   58.7248   62.0757 C   0  0  0  0  0  0  0  0  0  0  0  0
  -39.8630   59.7939   63.2225 O   0  0  0  0  0  0  0  0  0  0  0  0
  -37.6880   61.2893   64.4305 C   0  0  0  0  0  0  0  0  0  0  0  0
  -39.8706   60.3644   64.2700 C   0  0  0  0  0  0  0  0  0  0  0  0
  -40.7200   59.9800   65.4370 C   0  0  0  0  0  0  0  0  0  0  0  0
  -42.0280   59.3300   65.0270 C   0  0  0  0  0  0  0  0  0  0  0  0
  -42.8960   58.9560   66.2090 C   0  0  0  0  0  0  0  0  0  0  0  0
  -42.2531   57.9915   67.1776 C   0  0  0  0  0  0  0  0  0  0  0  0
  -41.8564   56.6765   66.5567 C   0  0  0  0  0  0  0  0  0  0  0  0
  -43.0292   55.9472   65.9583 C   0  0  0  0  0  0  0  0  0  0  0  0
  -42.7125   54.6199   65.3354 C   0  0  0  0  0  0  0  0  0  0  0  0
  -41.7323   54.7076   64.2434 C   0  0  0  0  0  0  0  0  0  0  0  0
  -41.2626   53.7318   63.4979 C   0  0  0  0  0  0  0  0  0  0  0  0
  -41.6167   52.2908   63.5496 C   0  0  0  0  0  0  0  0  0  0  0  0
  -43.0716   51.9657   63.2796 C   0  0  0  0  0  0  0  0  0  0  0  0
  -43.5198   52.3995   61.9110 C   0  0  0  0  0  0  0  0  0  0  0  0
  -44.9668   52.1119   61.6020 C   0  0  0  0  0  0  0  0  0  0  0  0
  -45.9145   52.8131   62.5501 C   0  0  0  0  0  0  0  0  0  0  0  0
  -45.7377   52.4579   64.0000 C   0  0  0  0  0  0  0  0  0  0  0  0
  -46.6916   53.1504   64.8887 C   0  0  0  0  0  0  0  0  0  0  0  0
  -46.5976   54.6072   64.8183 C   0  0  0  0  0  0  0  0  0  0  0  0
  -36.1531   60.5330   65.5932 H   0  0  0  0  0  0  0  0  0  0  0  0
  -38.5350   61.5017   66.8850 H   0  0  0  0  0  0  0  0  0  0  0  0
  -37.4778   58.6047   65.1192 H   0  0  0  0  0  0  0  0  0  0  0  0
  -38.8123   59.2623   66.0230 H   0  0  0  0  0  0  0  0  0  0  0  0
  -33.6127   59.9940   65.7205 H   0  0  0  0  0  0  0  0  0  0  0  0
  -32.9211   58.4805   66.1644 H   0  0  0  0  0  0  0  0  0  0  0  0
  -33.5040   57.5891   63.9375 H   0  0  0  0  0  0  0  0  0  0  0  0
  -34.1309   59.2272   63.5424 H   0  0  0  0  0  0  0  0  0  0  0  0
  -30.9922   58.6082   65.2892 H   0  0  0  0  0  0  0  0  0  0  0  0
  -30.0094   58.6966   63.8471 H   0  0  0  0  0  0  0  0  0  0  0  0
  -31.0445   57.3147   64.1157 H   0  0  0  0  0  0  0  0  0  0  0  0
  -35.6757   57.3962   68.9063 H   0  0  0  0  0  0  0  0  0  0  0  0
  -31.9471   60.7909   64.7394 H   0  0  0  0  0  0  0  0  0  0  0  0
  -32.6657   61.0545   63.1687 H   0  0  0  0  0  0  0  0  0  0  0  0
  -30.9378   60.8386   63.3139 H   0  0  0  0  0  0  0  0  0  0  0  0
  -32.1029   57.6691   61.9505 H   0  0  0  0  0  0  0  0  0  0  0  0
  -31.0284   59.0223   61.6909 H   0  0  0  0  0  0  0  0  0  0  0  0
  -32.7562   59.2382   61.5457 H   0  0  0  0  0  0  0  0  0  0  0  0
  -37.4425   60.6784   63.5870 H   0  0  0  0  0  0  0  0  0  0  0  0
  -37.2176   62.2408   64.2956 H   0  0  0  0  0  0  0  0  0  0  0  0
  -40.9394   60.8604   66.0042 H   0  0  0  0  0  0  0  0  0  0  0  0
  -40.1713   59.2627   66.0109 H   0  0  0  0  0  0  0  0  0  0  0  0
  -41.8086   58.4429   64.4703 H   0  0  0  0  0  0  0  0  0  0  0  0
  -42.5713   60.0428   64.4426 H   0  0  0  0  0  0  0  0  0  0  0  0
  -43.7930   58.5073   65.8363 H   0  0  0  0  0  0  0  0  0  0  0  0
  -43.0753   59.8597   66.7531 H   0  0  0  0  0  0  0  0  0  0  0  0
  -42.9469   57.7952   67.9682 H   0  0  0  0  0  0  0  0  0  0  0  0
  -41.3537   58.4544   67.5263 H   0  0  0  0  0  0  0  0  0  0  0  0
  -41.4166   56.0588   67.3116 H   0  0  0  0  0  0  0  0  0  0  0  0
  -41.1643   56.8840   65.7675 H   0  0  0  0  0  0  0  0  0  0  0  0
  -43.4562   56.5729   65.2026 H   0  0  0  0  0  0  0  0  0  0  0  0
  -43.6933   55.7401   66.7713 H   0  0  0  0  0  0  0  0  0  0  0  0
  -43.6178   54.2030   64.9460 H   0  0  0  0  0  0  0  0  0  0  0  0
  -42.2813   54.0069   66.0990 H   0  0  0  0  0  0  0  0  0  0  0  0
  -41.3681   55.6508   64.0366 H   0  0  0  0  0  0  0  0  0  0  0  0
  -40.5616   54.0004   62.7897 H   0  0  0  0  0  0  0  0  0  0  0  0
  -41.3734   51.9266   64.5259 H   0  0  0  0  0  0  0  0  0  0  0  0
  -41.0610   51.8237   62.7636 H   0  0  0  0  0  0  0  0  0  0  0  0
  -43.6746   52.4626   64.0106 H   0  0  0  0  0  0  0  0  0  0  0  0
  -43.1801   50.9025   63.3329 H   0  0  0  0  0  0  0  0  0  0  0  0
  -42.9171   51.8927   61.1866 H   0  0  0  0  0  0  0  0  0  0  0  0
  -43.4097   53.4634   61.8799 H   0  0  0  0  0  0  0  0  0  0  0  0
  -45.1293   51.0567   61.6731 H   0  0  0  0  0  0  0  0  0  0  0  0
  -45.1663   52.4762   60.6159 H   0  0  0  0  0  0  0  0  0  0  0  0
  -46.9150   52.5619   62.2660 H   0  0  0  0  0  0  0  0  0  0  0  0
  -45.7008   53.8584   62.4691 H   0  0  0  0  0  0  0  0  0  0  0  0
  -44.7440   52.7218   64.2961 H   0  0  0  0  0  0  0  0  0  0  0  0
  -45.9197   51.4078   64.0947 H   0  0  0  0  0  0  0  0  0  0  0  0
  -46.4986   52.8463   65.8963 H   0  0  0  0  0  0  0  0  0  0  0  0
  -47.6759   52.8813   64.5667 H   0  0  0  0  0  0  0  0  0  0  0  0
  -45.6234   54.9174   65.1339 H   0  0  0  0  0  0  0  0  0  0  0  0
  -47.3356   55.0436   65.4584 H   0  0  0  0  0  0  0  0  0  0  0  0
  -46.7649   54.9272   63.8110 H   0  0  0  0  0  0  0  0  0  0  0  0
  1  9  1  0  0  0  0
  1 11  1  0  0  0  0
  1 13  1  0  0  0  0
  1 15  1  0  0  0  0
  2  3  1  0  0  0  0
  2  5  1  0  0  0  0
  2 17  1  0  0  0  0
  2 36  1  6  0  0  0
  3 37  1  0  0  0  0
  4  6  1  0  0  0  0
  4  8  2  1  0  0  0
  4 10  1  0  0  0  0
  4 12  1  0  0  0  0
  5  6  1  0  0  0  0
  5 38  1  0  0  0  0
  5 39  1  0  0  0  0
  7  9  1  0  0  0  0
  7 10  1  0  0  0  0
  7 40  1  0  0  0  0
  7 41  1  0  0  0  0
  9 42  1  0  0  0  0
  9 43  1  0  0  0  0
 11 44  1  0  0  0  0
 11 45  1  0  0  0  0
 11 46  1  0  0  0  0
 12 47  1  0  0  0  0
 13 48  1  0  0  0  0
 13 49  1  0  0  0  0
 13 50  1  0  0  0  0
 14 17  1  0  0  0  0
 14 18  1  0  0  0  0
 15 51  1  0  0  0  0
 15 52  1  0  0  0  0
 15 53  1  0  0  0  0
 16 18  2  0  0  0  0
 17 54  1  0  0  0  0
 17 55  1  0  0  0  0
 18 19  1  0  0  0  0
 19 20  1  0  0  0  0
 19 56  1  0  0  0  0
 19 57  1  0  0  0  0
 20 21  1  0  0  0  0
 20 58  1  0  0  0  0
 20 59  1  0  0  0  0
 21 22  1  0  0  0  0
 21 60  1  0  0  0  0
 21 61  1  0  0  0  0
 22 23  1  0  0  0  0
 22 62  1  0  0  0  0
 22 63  1  0  0  0  0
 23 24  1  0  0  0  0
 23 64  1  0  0  0  0
 23 65  1  0  0  0  0
 24 25  1  0  0  0  0
 24 66  1  0  0  0  0
 24 67  1  0  0  0  0
 25 26  1  0  0  0  0
 25 68  1  0  0  0  0
 25 69  1  0  0  0  0
 26 27  2  0  0  0  0
 26 70  1  0  0  0  0
 27 28  1  0  0  0  0
 27 71  1  0  0  0  0
 28 29  1  0  0  0  0
 28 72  1  0  0  0  0
 28 73  1  0  0  0  0
 29 30  1  0  0  0  0
 29 74  1  0  0  0  0
 29 75  1  0  0  0  0
 30 31  1  0  0  0  0
 30 76  1  0  0  0  0
 30 77  1  0  0  0  0
 31 32  1  0  0  0  0
 31 78  1  0  0  0  0
 31 79  1  0  0  0  0
 32 33  1  0  0  0  0
 32 80  1  0  0  0  0
 32 81  1  0  0  0  0
 33 34  1  0  0  0  0
 33 82  1  0  0  0  0
 33 83  1  0  0  0  0
 34 35  1  0  0  0  0
 34 84  1  0  0  0  0
 34 85  1  0  0  0  0
 35 86  1  0  0  0  0
 35 87  1  0  0  0  0
 35 88  1  0  0  0  0
M  CHG  1   8  -1
M  END
$$$$