/media/chris/experiments/cd1a-new-docking/inputs/ligands/4x6c_ligand.pdb
 OpenBabel07012320263D

 88 87  0  0  1  0  0  0  0  0999 V2000
  -41.6655   66.2578   65.1441 N   0  0  0  0  0  4  0  0  0  0  0  0
  -40.2815   63.9089   67.5020 C   0  0  1  0  0  0  0  0  0  0  0  0
  -39.5156   64.5417   66.4768 O   0  0  0  0  0  0  0  0  0  0  0  0
  -43.2795   63.0215   65.1619 P   0  0  2  0  0  0  0  0  0  0  0  0
  -41.7315   63.9110   67.0825 C   0  0  0  0  0  0  0  0  0  0  0  0
  -41.8541   63.1707   65.8513 O   0  0  0  0  0  0  0  0  0  0  0  0
  -44.0092   65.4454   64.4701 C   0  0  0  0  0  0  0  0  0  0  0  0
  -43.2823   61.7281   64.4491 O   0  5  0  0  0  0  0  0  0  0  0  0
  -43.1045   66.0019   65.5460 C   0  0  0  0  0  0  0  0  0  0  0  0
  -43.4318   64.1759   64.0844 O   0  0  0  0  0  0  0  0  0  0  0  0
  -41.0052   65.0012   64.6755 C   0  0  0  0  0  0  0  0  0  0  0  0
  -44.2891   63.2672   66.2104 O   0  0  0  0  0  0  0  0  0  0  0  0
  -40.9053   66.7881   66.3173 C   0  0  0  0  0  0  0  0  0  0  0  0
  -39.7518   61.7899   66.5621 O   0  0  0  0  0  0  0  0  0  0  0  0
  -41.6257   67.2617   64.0351 C   0  0  0  0  0  0  0  0  0  0  0  0
  -41.9781   61.6793   66.5336 O   0  0  0  0  0  0  0  0  0  0  0  0
  -39.7021   62.5438   67.7939 C   0  0  0  0  0  0  0  0  0  0  0  0
  -40.9154   61.2318   66.2282 C   0  0  0  0  0  0  0  0  0  0  0  0
  -40.7200   59.9800   65.4370 C   0  0  0  0  0  0  0  0  0  0  0  0
  -42.0280   59.3300   65.0270 C   0  0  0  0  0  0  0  0  0  0  0  0
  -42.8960   58.9560   66.2090 C   0  0  0  0  0  0  0  0  0  0  0  0
  -44.2012   58.2902   65.8416 C   0  0  0  0  0  0  0  0  0  0  0  0
  -45.0623   57.9388   67.0279 C   0  0  0  0  0  0  0  0  0  0  0  0
  -46.3454   57.2626   66.6256 C   0  0  0  0  0  0  0  0  0  0  0  0
  -46.1864   55.9650   65.8901 C   0  0  0  0  0  0  0  0  0  0  0  0
  -45.4822   54.9361   66.6690 C   0  0  0  0  0  0  0  0  0  0  0  0
  -46.0004   54.0374   67.4767 C   0  0  0  0  0  0  0  0  0  0  0  0
  -47.4332   53.8129   67.7949 C   0  0  0  0  0  0  0  0  0  0  0  0
  -48.1543   52.8263   66.8995 C   0  0  0  0  0  0  0  0  0  0  0  0
  -47.5526   51.4488   66.9491 C   0  0  0  0  0  0  0  0  0  0  0  0
  -48.2268   50.4349   66.0606 C   0  0  0  0  0  0  0  0  0  0  0  0
  -48.1748   50.8176   64.5979 C   0  0  0  0  0  0  0  0  0  0  0  0
  -48.8477   49.8491   63.6657 C   0  0  0  0  0  0  0  0  0  0  0  0
  -48.2751   48.4898   63.7270 C   0  0  0  0  0  0  0  0  0  0  0  0
  -48.3822   47.8741   65.0482 C   0  0  0  0  0  0  0  0  0  0  0  0
  -40.2343   64.4389   68.4303 H   0  0  0  0  0  0  0  0  0  0  0  0
  -39.5871   64.0289   65.6566 H   0  0  0  0  0  0  0  0  0  0  0  0
  -42.0620   64.9176   66.9325 H   0  0  0  0  0  0  0  0  0  0  0  0
  -42.3332   63.4589   67.8430 H   0  0  0  0  0  0  0  0  0  0  0  0
  -44.0424   66.1093   63.6316 H   0  0  0  0  0  0  0  0  0  0  0  0
  -45.0131   65.3299   64.8217 H   0  0  0  0  0  0  0  0  0  0  0  0
  -43.5217   66.9306   65.8751 H   0  0  0  0  0  0  0  0  0  0  0  0
  -43.0606   65.2462   66.3022 H   0  0  0  0  0  0  0  0  0  0  0  0
  -41.0264   64.2733   65.4595 H   0  0  0  0  0  0  0  0  0  0  0  0
  -39.9899   65.2096   64.4096 H   0  0  0  0  0  0  0  0  0  0  0  0
  -41.5266   64.6212   63.8219 H   0  0  0  0  0  0  0  0  0  0  0  0
  -44.2248   62.5773   66.8892 H   0  0  0  0  0  0  0  0  0  0  0  0
  -40.9318   66.0726   67.1124 H   0  0  0  0  0  0  0  0  0  0  0  0
  -41.3506   67.7037   66.6464 H   0  0  0  0  0  0  0  0  0  0  0  0
  -39.8896   66.9676   66.0325 H   0  0  0  0  0  0  0  0  0  0  0  0
  -42.1690   66.8853   63.1936 H   0  0  0  0  0  0  0  0  0  0  0  0
  -40.6094   67.4407   63.7524 H   0  0  0  0  0  0  0  0  0  0  0  0
  -42.0703   68.1769   64.3663 H   0  0  0  0  0  0  0  0  0  0  0  0
  -40.2807   62.0530   68.5484 H   0  0  0  0  0  0  0  0  0  0  0  0
  -38.6967   62.6247   68.1510 H   0  0  0  0  0  0  0  0  0  0  0  0
  -40.1644   59.2843   66.0305 H   0  0  0  0  0  0  0  0  0  0  0  0
  -40.1985   60.2448   64.5410 H   0  0  0  0  0  0  0  0  0  0  0  0
  -41.8086   58.4429   64.4703 H   0  0  0  0  0  0  0  0  0  0  0  0
  -42.5713   60.0428   64.4426 H   0  0  0  0  0  0  0  0  0  0  0  0
  -43.1183   59.8483   66.7560 H   0  0  0  0  0  0  0  0  0  0  0  0
  -42.3406   58.2423   66.7808 H   0  0  0  0  0  0  0  0  0  0  0  0
  -43.9814   57.3901   65.3063 H   0  0  0  0  0  0  0  0  0  0  0  0
  -44.7539   58.9929   65.2537 H   0  0  0  0  0  0  0  0  0  0  0  0
  -45.2991   58.8372   67.5587 H   0  0  0  0  0  0  0  0  0  0  0  0
  -44.5114   57.2554   67.6397 H   0  0  0  0  0  0  0  0  0  0  0  0
  -46.8891   57.9348   65.9952 H   0  0  0  0  0  0  0  0  0  0  0  0
  -46.8512   57.0241   67.5379 H   0  0  0  0  0  0  0  0  0  0  0  0
  -45.6333   56.1490   64.9928 H   0  0  0  0  0  0  0  0  0  0  0  0
  -47.1692   55.5925   65.6896 H   0  0  0  0  0  0  0  0  0  0  0  0
  -44.4552   54.9169   66.5696 H   0  0  0  0  0  0  0  0  0  0  0  0
  -45.3287   53.4110   67.9474 H   0  0  0  0  0  0  0  0  0  0  0  0
  -47.9380   54.7535   67.7225 H   0  0  0  0  0  0  0  0  0  0  0  0
  -47.4525   53.3868   68.7762 H   0  0  0  0  0  0  0  0  0  0  0  0
  -48.1098   53.1830   65.8917 H   0  0  0  0  0  0  0  0  0  0  0  0
  -49.1629   52.7508   67.2487 H   0  0  0  0  0  0  0  0  0  0  0  0
  -47.6079   51.0970   67.9581 H   0  0  0  0  0  0  0  0  0  0  0  0
  -46.5487   51.5443   66.5913 H   0  0  0  0  0  0  0  0  0  0  0  0
  -49.2515   50.3480   66.3560 H   0  0  0  0  0  0  0  0  0  0  0  0
  -47.7041   49.5079   66.1719 H   0  0  0  0  0  0  0  0  0  0  0  0
  -47.1469   50.8954   64.3111 H   0  0  0  0  0  0  0  0  0  0  0  0
  -48.7103   51.7398   64.5100 H   0  0  0  0  0  0  0  0  0  0  0  0
  -48.7483   50.2152   62.6652 H   0  0  0  0  0  0  0  0  0  0  0  0
  -49.8718   49.7767   63.9672 H   0  0  0  0  0  0  0  0  0  0  0  0
  -47.2401   48.5455   63.4615 H   0  0  0  0  0  0  0  0  0  0  0  0
  -48.8344   47.8805   63.0481 H   0  0  0  0  0  0  0  0  0  0  0  0
  -47.8336   48.4566   65.7586 H   0  0  0  0  0  0  0  0  0  0  0  0
  -47.9806   46.8830   65.0134 H   0  0  0  0  0  0  0  0  0  0  0  0
  -49.4109   47.8322   65.3398 H   0  0  0  0  0  0  0  0  0  0  0  0
  1  9  1  0  0  0  0
  1 11  1  0  0  0  0
  1 13  1  0  0  0  0
  1 15  1  0  0  0  0
  2  3  1  0  0  0  0
  2  5  1  0  0  0  0
  2 17  1  0  0  0  0
  2 36  1  1  0  0  0
  3 37  1  0  0  0  0
  4  6  1  0  0  0  0
  4  8  2  6  0  0  0
  4 10  1  0  0  0  0
  4 12  1  0  0  0  0
  5  6  1  0  0  0  0
  5 38  1  0  0  0  0
  5 39  1  0  0  0  0
  7  9  1  0  0  0  0
  7 10  1  0  0  0  0
  7 40  1  0  0  0  0
  7 41  1  0  0  0  0
  9 42  1  0  0  0  0
  9 43  1  0  0  0  0
 11 44  1  0  0  0  0
 11 45  1  0  0  0  0
 11 46  1  0  0  0  0
 12 47  1  0  0  0  0
 13 48  1  0  0  0  0
 13 49  1  0  0  0  0
 13 50  1  0  0  0  0
 14 17  1  0  0  0  0
 14 18  1  0  0  0  0
 15 51  1  0  0  0  0
 15 52  1  0  0  0  0
 15 53  1  0  0  0  0
 16 18  2  0  0  0  0
 17 54  1  0  0  0  0
 17 55  1  0  0  0  0
 18 19  1  0  0  0  0
 19 20  1  0  0  0  0
 19 56  1  0  0  0  0
 19 57  1  0  0  0  0
 20 21  1  0  0  0  0
 20 58  1  0  0  0  0
 20 59  1  0  0  0  0
 21 22  1  0  0  0  0
 21 60  1  0  0  0  0
 21 61  1  0  0  0  0
 22 23  1  0  0  0  0
 22 62  1  0  0  0  0
 22 63  1  0  0  0  0
 23 24  1  0  0  0  0
 23 64  1  0  0  0  0
 23 65  1  0  0  0  0
 24 25  1  0  0  0  0
 24 66  1  0  0  0  0
 24 67  1  0  0  0  0
 25 26  1  0  0  0  0
 25 68  1  0  0  0  0
 25 69  1  0  0  0  0
 26 27  2  0  0  0  0
 26 70  1  0  0  0  0
 27 28  1  0  0  0  0
 27 71  1  0  0  0  0
 28 29  1  0  0  0  0
 28 72  1  0  0  0  0
 28 73  1  0  0  0  0
 29 30  1  0  0  0  0
 29 74  1  0  0  0  0
 29 75  1  0  0  0  0
 30 31  1  0  0  0  0
 30 76  1  0  0  0  0
 30 77  1  0  0  0  0
 31 32  1  0  0  0  0
 31 78  1  0  0  0  0
 31 79  1  0  0  0  0
 32 33  1  0  0  0  0
 32 80  1  0  0  0  0
 32 81  1  0  0  0  0
 33 34  1  0  0  0  0
 33 82  1  0  0  0  0
 33 83  1  0  0  0  0
 34 35  1  0  0  0  0
 34 84  1  0  0  0  0
 34 85  1  0  0  0  0
 35 86  1  0  0  0  0
 35 87  1  0  0  0  0
 35 88  1  0  0  0  0
M  CHG  1   8  -1
M  END
$$$$