/media/chris/experiments/cd1a-new-docking/inputs/ligands/4x6c_ligand.pdb
 OpenBabel07012320263D

 88 87  0  0  1  0  0  0  0  0999 V2000
  -38.8849   62.1795   68.2114 N   0  0  0  0  0  4  0  0  0  0  0  0
  -37.5690   62.1759   63.4873 C   0  0  1  0  0  0  0  0  0  0  0  0
  -38.8681   62.7013   63.2144 O   0  0  0  0  0  0  0  0  0  0  0  0
  -34.9366   62.8111   66.3012 P   0  0  2  0  0  0  0  0  0  0  0  0
  -37.0476   62.8263   64.7457 C   0  0  0  0  0  0  0  0  0  0  0  0
  -35.7285   62.3107   65.0159 O   0  0  0  0  0  0  0  0  0  0  0  0
  -36.3261   61.9972   68.3733 C   0  0  0  0  0  0  0  0  0  0  0  0
  -33.4981   62.7583   65.9711 O   0  5  0  0  0  0  0  0  0  0  0  0
  -37.5623   61.9621   67.5036 C   0  0  0  0  0  0  0  0  0  0  0  0
  -35.2074   61.7849   67.4805 O   0  0  0  0  0  0  0  0  0  0  0  0
  -38.9293   63.5204   68.8707 C   0  0  0  0  0  0  0  0  0  0  0  0
  -35.5367   64.1001   66.6980 O   0  0  0  0  0  0  0  0  0  0  0  0
  -39.0720   61.1268   69.2565 C   0  0  0  0  0  0  0  0  0  0  0  0
  -38.5722   60.3099   64.5669 O   0  0  0  0  0  0  0  0  0  0  0  0
  -40.0034   62.0961   67.2206 C   0  0  0  0  0  0  0  0  0  0  0  0
  -40.2945   60.6885   63.2031 O   0  0  0  0  0  0  0  0  0  0  0  0
  -37.6341   60.6664   63.5272 C   0  0  0  0  0  0  0  0  0  0  0  0
  -39.8706   60.3644   64.2700 C   0  0  0  0  0  0  0  0  0  0  0  0
  -40.7200   59.9800   65.4370 C   0  0  0  0  0  0  0  0  0  0  0  0
  -42.0280   59.3300   65.0270 C   0  0  0  0  0  0  0  0  0  0  0  0
  -42.8960   58.9560   66.2090 C   0  0  0  0  0  0  0  0  0  0  0  0
  -44.2012   58.2902   65.8416 C   0  0  0  0  0  0  0  0  0  0  0  0
  -45.0623   57.9388   67.0279 C   0  0  0  0  0  0  0  0  0  0  0  0
  -45.4546   59.1497   67.8311 C   0  0  0  0  0  0  0  0  0  0  0  0
  -46.2524   60.1824   67.0913 C   0  0  0  0  0  0  0  0  0  0  0  0
  -45.5559   60.7251   65.9160 C   0  0  0  0  0  0  0  0  0  0  0  0
  -45.5936   60.2835   64.6782 C   0  0  0  0  0  0  0  0  0  0  0  0
  -46.3671   59.1357   64.1409 C   0  0  0  0  0  0  0  0  0  0  0  0
  -46.1883   58.8629   62.6614 C   0  0  0  0  0  0  0  0  0  0  0  0
  -44.7648   58.5419   62.2974 C   0  0  0  0  0  0  0  0  0  0  0  0
  -44.2024   57.3185   62.9747 C   0  0  0  0  0  0  0  0  0  0  0  0
  -44.9719   56.0608   62.6360 C   0  0  0  0  0  0  0  0  0  0  0  0
  -44.9898   55.7030   61.1761 C   0  0  0  0  0  0  0  0  0  0  0  0
  -43.6440   55.4587   60.6208 C   0  0  0  0  0  0  0  0  0  0  0  0
  -42.9408   54.3535   61.2689 C   0  0  0  0  0  0  0  0  0  0  0  0
  -36.8666   62.4069   62.7139 H   0  0  0  0  0  0  0  0  0  0  0  0
  -39.4697   62.4687   63.9389 H   0  0  0  0  0  0  0  0  0  0  0  0
  -37.6979   62.6002   65.5647 H   0  0  0  0  0  0  0  0  0  0  0  0
  -37.0067   63.8880   64.6191 H   0  0  0  0  0  0  0  0  0  0  0  0
  -36.3669   61.2221   69.1097 H   0  0  0  0  0  0  0  0  0  0  0  0
  -36.2403   62.9264   68.8968 H   0  0  0  0  0  0  0  0  0  0  0  0
  -37.4604   62.7251   66.7604 H   0  0  0  0  0  0  0  0  0  0  0  0
  -37.6078   60.9678   67.1107 H   0  0  0  0  0  0  0  0  0  0  0  0
  -38.1341   63.5943   69.5828 H   0  0  0  0  0  0  0  0  0  0  0  0
  -39.8678   63.6413   69.3704 H   0  0  0  0  0  0  0  0  0  0  0  0
  -38.8180   64.2855   68.1310 H   0  0  0  0  0  0  0  0  0  0  0  0
  -35.3897   64.7545   65.9972 H   0  0  0  0  0  0  0  0  0  0  0  0
  -38.2738   61.1836   69.9668 H   0  0  0  0  0  0  0  0  0  0  0  0
  -39.0705   60.1616   68.7947 H   0  0  0  0  0  0  0  0  0  0  0  0
  -40.0055   61.2819   69.7558 H   0  0  0  0  0  0  0  0  0  0  0  0
  -39.8726   62.8483   66.4710 H   0  0  0  0  0  0  0  0  0  0  0  0
  -40.9361   62.2503   67.7218 H   0  0  0  0  0  0  0  0  0  0  0  0
  -40.0011   61.1300   66.7607 H   0  0  0  0  0  0  0  0  0  0  0  0
  -36.6684   60.2630   63.7498 H   0  0  0  0  0  0  0  0  0  0  0  0
  -37.9450   60.2731   62.5819 H   0  0  0  0  0  0  0  0  0  0  0  0
  -40.9394   60.8604   66.0042 H   0  0  0  0  0  0  0  0  0  0  0  0
  -40.1713   59.2627   66.0109 H   0  0  0  0  0  0  0  0  0  0  0  0
  -41.8086   58.4429   64.4703 H   0  0  0  0  0  0  0  0  0  0  0  0
  -42.5713   60.0428   64.4426 H   0  0  0  0  0  0  0  0  0  0  0  0
  -43.1183   59.8483   66.7560 H   0  0  0  0  0  0  0  0  0  0  0  0
  -42.3406   58.2423   66.7808 H   0  0  0  0  0  0  0  0  0  0  0  0
  -43.9814   57.3901   65.3063 H   0  0  0  0  0  0  0  0  0  0  0  0
  -44.7539   58.9929   65.2537 H   0  0  0  0  0  0  0  0  0  0  0  0
  -44.5188   57.2683   67.6603 H   0  0  0  0  0  0  0  0  0  0  0  0
  -45.9594   57.4883   66.6576 H   0  0  0  0  0  0  0  0  0  0  0  0
  -44.5587   59.6157   68.1846 H   0  0  0  0  0  0  0  0  0  0  0  0
  -46.0905   58.7909   68.6133 H   0  0  0  0  0  0  0  0  0  0  0  0
  -46.4673   60.9889   67.7608 H   0  0  0  0  0  0  0  0  0  0  0  0
  -47.1413   59.7025   66.7386 H   0  0  0  0  0  0  0  0  0  0  0  0
  -44.9648   61.5544   66.0830 H   0  0  0  0  0  0  0  0  0  0  0  0
  -45.0144   60.7978   63.9963 H   0  0  0  0  0  0  0  0  0  0  0  0
  -47.4051   59.3263   64.3177 H   0  0  0  0  0  0  0  0  0  0  0  0
  -45.9951   58.2690   64.6460 H   0  0  0  0  0  0  0  0  0  0  0  0
  -46.4942   59.7300   62.1141 H   0  0  0  0  0  0  0  0  0  0  0  0
  -46.7846   58.0090   62.4162 H   0  0  0  0  0  0  0  0  0  0  0  0
  -44.1554   59.3802   62.5638 H   0  0  0  0  0  0  0  0  0  0  0  0
  -44.7604   58.3353   61.2475 H   0  0  0  0  0  0  0  0  0  0  0  0
  -44.2369   57.4667   64.0338 H   0  0  0  0  0  0  0  0  0  0  0  0
  -43.1989   57.1880   62.6270 H   0  0  0  0  0  0  0  0  0  0  0  0
  -45.9836   56.1934   62.9581 H   0  0  0  0  0  0  0  0  0  0  0  0
  -44.4700   55.2585   63.1353 H   0  0  0  0  0  0  0  0  0  0  0  0
  -45.4403   56.5081   60.6341 H   0  0  0  0  0  0  0  0  0  0  0  0
  -45.5441   54.7930   61.0784 H   0  0  0  0  0  0  0  0  0  0  0  0
  -43.0612   56.3481   60.7401 H   0  0  0  0  0  0  0  0  0  0  0  0
  -43.7702   55.1930   59.5920 H   0  0  0  0  0  0  0  0  0  0  0  0
  -42.7947   54.5817   62.3040 H   0  0  0  0  0  0  0  0  0  0  0  0
  -41.9908   54.2100   60.7978 H   0  0  0  0  0  0  0  0  0  0  0  0
  -43.5220   53.4595   61.1793 H   0  0  0  0  0  0  0  0  0  0  0  0
  1  9  1  0  0  0  0
  1 11  1  0  0  0  0
  1 13  1  0  0  0  0
  1 15  1  0  0  0  0
  2  3  1  0  0  0  0
  2  5  1  0  0  0  0
  2 17  1  0  0  0  0
  2 36  1  6  0  0  0
  3 37  1  0  0  0  0
  4  6  1  0  0  0  0
  4  8  2  6  0  0  0
  4 10  1  0  0  0  0
  4 12  1  0  0  0  0
  5  6  1  0  0  0  0
  5 38  1  0  0  0  0
  5 39  1  0  0  0  0
  7  9  1  0  0  0  0
  7 10  1  0  0  0  0
  7 40  1  0  0  0  0
  7 41  1  0  0  0  0
  9 42  1  0  0  0  0
  9 43  1  0  0  0  0
 11 44  1  0  0  0  0
 11 45  1  0  0  0  0
 11 46  1  0  0  0  0
 12 47  1  0  0  0  0
 13 48  1  0  0  0  0
 13 49  1  0  0  0  0
 13 50  1  0  0  0  0
 14 17  1  0  0  0  0
 14 18  1  0  0  0  0
 15 51  1  0  0  0  0
 15 52  1  0  0  0  0
 15 53  1  0  0  0  0
 16 18  2  0  0  0  0
 17 54  1  0  0  0  0
 17 55  1  0  0  0  0
 18 19  1  0  0  0  0
 19 20  1  0  0  0  0
 19 56  1  0  0  0  0
 19 57  1  0  0  0  0
 20 21  1  0  0  0  0
 20 58  1  0  0  0  0
 20 59  1  0  0  0  0
 21 22  1  0  0  0  0
 21 60  1  0  0  0  0
 21 61  1  0  0  0  0
 22 23  1  0  0  0  0
 22 62  1  0  0  0  0
 22 63  1  0  0  0  0
 23 24  1  0  0  0  0
 23 64  1  0  0  0  0
 23 65  1  0  0  0  0
 24 25  1  0  0  0  0
 24 66  1  0  0  0  0
 24 67  1  0  0  0  0
 25 26  1  0  0  0  0
 25 68  1  0  0  0  0
 25 69  1  0  0  0  0
 26 27  2  0  0  0  0
 26 70  1  0  0  0  0
 27 28  1  0  0  0  0
 27 71  1  0  0  0  0
 28 29  1  0  0  0  0
 28 72  1  0  0  0  0
 28 73  1  0  0  0  0
 29 30  1  0  0  0  0
 29 74  1  0  0  0  0
 29 75  1  0  0  0  0
 30 31  1  0  0  0  0
 30 76  1  0  0  0  0
 30 77  1  0  0  0  0
 31 32  1  0  0  0  0
 31 78  1  0  0  0  0
 31 79  1  0  0  0  0
 32 33  1  0  0  0  0
 32 80  1  0  0  0  0
 32 81  1  0  0  0  0
 33 34  1  0  0  0  0
 33 82  1  0  0  0  0
 33 83  1  0  0  0  0
 34 35  1  0  0  0  0
 34 84  1  0  0  0  0
 34 85  1  0  0  0  0
 35 86  1  0  0  0  0
 35 87  1  0  0  0  0
 35 88  1  0  0  0  0
M  CHG  1   8  -1
M  END
$$$$