/media/chris/experiments/cd1a-new-docking/inputs/ligands/4x6c_ligand.pdb
 OpenBabel07012320263D

 88 87  0  0  1  0  0  0  0  0999 V2000
  -38.4211   57.8987   54.7758 N   0  0  0  0  0  4  0  0  0  0  0  0
  -38.4629   62.1301   62.2472 C   0  0  1  0  0  0  0  0  0  0  0  0
  -37.7420   60.9498   62.6013 O   0  0  0  0  0  0  0  0  0  0  0  0
  -38.1097   61.5795   58.3971 P   0  0  2  0  0  0  0  0  0  0  0  0
  -38.0717   62.5232   60.8433 C   0  0  0  0  0  0  0  0  0  0  0  0
  -38.4241   61.4473   59.9505 O   0  0  0  0  0  0  0  0  0  0  0  0
  -38.0724   59.8065   56.4627 C   0  0  0  0  0  0  0  0  0  0  0  0
  -38.8302   62.7730   57.9096 O   0  5  0  0  0  0  0  0  0  0  0  0
  -38.8995   58.6211   56.0196 C   0  0  0  0  0  0  0  0  0  0  0  0
  -38.7101   60.3091   57.6604 O   0  0  0  0  0  0  0  0  0  0  0  0
  -37.0464   57.3443   54.9697 C   0  0  0  0  0  0  0  0  0  0  0  0
  -36.6422   61.5156   58.2511 O   0  0  0  0  0  0  0  0  0  0  0  0
  -38.3940   58.8510   53.6235 C   0  0  0  0  0  0  0  0  0  0  0  0
  -40.1290   61.6065   63.8608 O   0  0  0  0  0  0  0  0  0  0  0  0
  -39.3524   56.7702   54.4621 C   0  0  0  0  0  0  0  0  0  0  0  0
  -39.0635   59.6511   63.7574 O   0  0  0  0  0  0  0  0  0  0  0  0
  -39.9417   61.8999   62.4584 C   0  0  0  0  0  0  0  0  0  0  0  0
  -39.8706   60.3644   64.2700 C   0  0  0  0  0  0  0  0  0  0  0  0
  -40.7200   59.9800   65.4370 C   0  0  0  0  0  0  0  0  0  0  0  0
  -42.0280   59.3300   65.0270 C   0  0  0  0  0  0  0  0  0  0  0  0
  -42.8960   58.9560   66.2090 C   0  0  0  0  0  0  0  0  0  0  0  0
  -43.3110   60.1221   67.0749 C   0  0  0  0  0  0  0  0  0  0  0  0
  -44.1610   59.7323   68.2572 C   0  0  0  0  0  0  0  0  0  0  0  0
  -45.4346   59.0435   67.8464 C   0  0  0  0  0  0  0  0  0  0  0  0
  -45.2577   57.7641   67.0836 C   0  0  0  0  0  0  0  0  0  0  0  0
  -44.5334   56.7311   67.8381 C   0  0  0  0  0  0  0  0  0  0  0  0
  -44.8751   56.1738   68.9788 C   0  0  0  0  0  0  0  0  0  0  0  0
  -46.0925   56.4260   69.7904 C   0  0  0  0  0  0  0  0  0  0  0  0
  -46.5943   55.2473   70.5991 C   0  0  0  0  0  0  0  0  0  0  0  0
  -47.8376   55.5670   71.3828 C   0  0  0  0  0  0  0  0  0  0  0  0
  -49.0214   55.9778   70.5451 C   0  0  0  0  0  0  0  0  0  0  0  0
  -49.4519   54.8977   69.5773 C   0  0  0  0  0  0  0  0  0  0  0  0
  -50.6200   55.2596   68.7030 C   0  0  0  0  0  0  0  0  0  0  0  0
  -51.8367   55.5959   69.4682 C   0  0  0  0  0  0  0  0  0  0  0  0
  -52.3007   54.5087   70.3277 C   0  0  0  0  0  0  0  0  0  0  0  0
  -38.2151   62.9610   62.8742 H   0  0  0  0  0  0  0  0  0  0  0  0
  -37.9973   60.2252   62.0091 H   0  0  0  0  0  0  0  0  0  0  0  0
  -37.0171   62.6984   60.7984 H   0  0  0  0  0  0  0  0  0  0  0  0
  -38.5837   63.4184   60.5577 H   0  0  0  0  0  0  0  0  0  0  0  0
  -38.0631   60.5591   55.7022 H   0  0  0  0  0  0  0  0  0  0  0  0
  -37.0552   59.5296   56.6457 H   0  0  0  0  0  0  0  0  0  0  0  0
  -38.9133   57.9142   56.8227 H   0  0  0  0  0  0  0  0  0  0  0  0
  -39.8597   59.0202   55.7674 H   0  0  0  0  0  0  0  0  0  0  0  0
  -36.3689   58.1412   55.1950 H   0  0  0  0  0  0  0  0  0  0  0  0
  -36.7312   56.8507   54.0742 H   0  0  0  0  0  0  0  0  0  0  0  0
  -37.0550   56.6441   55.7787 H   0  0  0  0  0  0  0  0  0  0  0  0
  -36.2399   62.2804   58.6916 H   0  0  0  0  0  0  0  0  0  0  0  0
  -37.7288   59.6595   53.8445 H   0  0  0  0  0  0  0  0  0  0  0  0
  -39.3784   59.2350   53.4549 H   0  0  0  0  0  0  0  0  0  0  0  0
  -38.0554   58.3401   52.7465 H   0  0  0  0  0  0  0  0  0  0  0  0
  -39.3742   56.0865   55.2849 H   0  0  0  0  0  0  0  0  0  0  0  0
  -39.0129   56.2611   53.5843 H   0  0  0  0  0  0  0  0  0  0  0  0
  -40.3360   57.1560   54.2927 H   0  0  0  0  0  0  0  0  0  0  0  0
  -40.2736   61.0750   61.8631 H   0  0  0  0  0  0  0  0  0  0  0  0
  -40.5066   62.7618   62.1705 H   0  0  0  0  0  0  0  0  0  0  0  0
  -40.9394   60.8604   66.0042 H   0  0  0  0  0  0  0  0  0  0  0  0
  -40.1713   59.2627   66.0109 H   0  0  0  0  0  0  0  0  0  0  0  0
  -41.8086   58.4429   64.4703 H   0  0  0  0  0  0  0  0  0  0  0  0
  -42.5713   60.0428   64.4426 H   0  0  0  0  0  0  0  0  0  0  0  0
  -42.3518   58.2646   66.8179 H   0  0  0  0  0  0  0  0  0  0  0  0
  -43.7960   58.5403   65.8064 H   0  0  0  0  0  0  0  0  0  0  0  0
  -43.8675   60.8086   66.4716 H   0  0  0  0  0  0  0  0  0  0  0  0
  -42.4135   60.5536   67.4661 H   0  0  0  0  0  0  0  0  0  0  0  0
  -44.4100   60.6155   68.8074 H   0  0  0  0  0  0  0  0  0  0  0  0
  -43.5962   59.0456   68.8526 H   0  0  0  0  0  0  0  0  0  0  0  0
  -45.9920   59.7195   67.2322 H   0  0  0  0  0  0  0  0  0  0  0  0
  -45.9324   58.7780   68.7556 H   0  0  0  0  0  0  0  0  0  0  0  0
  -44.7118   57.9757   66.1880 H   0  0  0  0  0  0  0  0  0  0  0  0
  -46.2352   57.3797   66.8795 H   0  0  0  0  0  0  0  0  0  0  0  0
  -43.6480   56.4032   67.4213 H   0  0  0  0  0  0  0  0  0  0  0  0
  -44.2162   55.4751   69.3566 H   0  0  0  0  0  0  0  0  0  0  0  0
  -46.8752   56.7265   69.1256 H   0  0  0  0  0  0  0  0  0  0  0  0
  -45.8197   57.1760   70.5032 H   0  0  0  0  0  0  0  0  0  0  0  0
  -45.8265   54.9494   71.2822 H   0  0  0  0  0  0  0  0  0  0  0  0
  -46.8384   54.4646   69.9116 H   0  0  0  0  0  0  0  0  0  0  0  0
  -47.6111   56.3679   72.0552 H   0  0  0  0  0  0  0  0  0  0  0  0
  -48.1200   54.6644   71.8833 H   0  0  0  0  0  0  0  0  0  0  0  0
  -48.7597   56.8529   69.9877 H   0  0  0  0  0  0  0  0  0  0  0  0
  -49.8397   56.1630   71.2091 H   0  0  0  0  0  0  0  0  0  0  0  0
  -49.7175   54.0300   70.1443 H   0  0  0  0  0  0  0  0  0  0  0  0
  -48.6234   54.7368   68.9195 H   0  0  0  0  0  0  0  0  0  0  0  0
  -50.8381   54.4283   68.0655 H   0  0  0  0  0  0  0  0  0  0  0  0
  -50.3431   56.1307   68.1468 H   0  0  0  0  0  0  0  0  0  0  0  0
  -52.6164   55.8378   68.7764 H   0  0  0  0  0  0  0  0  0  0  0  0
  -51.5916   56.4198   70.1054 H   0  0  0  0  0  0  0  0  0  0  0  0
  -52.5569   53.6623   69.7252 H   0  0  0  0  0  0  0  0  0  0  0  0
  -53.1617   54.8299   70.8758 H   0  0  0  0  0  0  0  0  0  0  0  0
  -51.5233   54.2378   71.0112 H   0  0  0  0  0  0  0  0  0  0  0  0
  1  9  1  0  0  0  0
  1 11  1  0  0  0  0
  1 13  1  0  0  0  0
  1 15  1  0  0  0  0
  2  3  1  0  0  0  0
  2  5  1  0  0  0  0
  2 17  1  0  0  0  0
  2 36  1  1  0  0  0
  3 37  1  0  0  0  0
  4  6  1  0  0  0  0
  4  8  2  6  0  0  0
  4 10  1  0  0  0  0
  4 12  1  0  0  0  0
  5  6  1  0  0  0  0
  5 38  1  0  0  0  0
  5 39  1  0  0  0  0
  7  9  1  0  0  0  0
  7 10  1  0  0  0  0
  7 40  1  0  0  0  0
  7 41  1  0  0  0  0
  9 42  1  0  0  0  0
  9 43  1  0  0  0  0
 11 44  1  0  0  0  0
 11 45  1  0  0  0  0
 11 46  1  0  0  0  0
 12 47  1  0  0  0  0
 13 48  1  0  0  0  0
 13 49  1  0  0  0  0
 13 50  1  0  0  0  0
 14 17  1  0  0  0  0
 14 18  1  0  0  0  0
 15 51  1  0  0  0  0
 15 52  1  0  0  0  0
 15 53  1  0  0  0  0
 16 18  2  0  0  0  0
 17 54  1  0  0  0  0
 17 55  1  0  0  0  0
 18 19  1  0  0  0  0
 19 20  1  0  0  0  0
 19 56  1  0  0  0  0
 19 57  1  0  0  0  0
 20 21  1  0  0  0  0
 20 58  1  0  0  0  0
 20 59  1  0  0  0  0
 21 22  1  0  0  0  0
 21 60  1  0  0  0  0
 21 61  1  0  0  0  0
 22 23  1  0  0  0  0
 22 62  1  0  0  0  0
 22 63  1  0  0  0  0
 23 24  1  0  0  0  0
 23 64  1  0  0  0  0
 23 65  1  0  0  0  0
 24 25  1  0  0  0  0
 24 66  1  0  0  0  0
 24 67  1  0  0  0  0
 25 26  1  0  0  0  0
 25 68  1  0  0  0  0
 25 69  1  0  0  0  0
 26 27  2  0  0  0  0
 26 70  1  0  0  0  0
 27 28  1  0  0  0  0
 27 71  1  0  0  0  0
 28 29  1  0  0  0  0
 28 72  1  0  0  0  0
 28 73  1  0  0  0  0
 29 30  1  0  0  0  0
 29 74  1  0  0  0  0
 29 75  1  0  0  0  0
 30 31  1  0  0  0  0
 30 76  1  0  0  0  0
 30 77  1  0  0  0  0
 31 32  1  0  0  0  0
 31 78  1  0  0  0  0
 31 79  1  0  0  0  0
 32 33  1  0  0  0  0
 32 80  1  0  0  0  0
 32 81  1  0  0  0  0
 33 34  1  0  0  0  0
 33 82  1  0  0  0  0
 33 83  1  0  0  0  0
 34 35  1  0  0  0  0
 34 84  1  0  0  0  0
 34 85  1  0  0  0  0
 35 86  1  0  0  0  0
 35 87  1  0  0  0  0
 35 88  1  0  0  0  0
M  CHG  1   8  -1
M  END
$$$$