/media/chris/experiments/cd1a-new-docking/inputs/ligands/4x6c_ligand.pdb
 OpenBabel07012320263D

 88 87  0  0  1  0  0  0  0  0999 V2000
  -40.9970   59.2949   73.1720 N   0  0  0  0  0  4  0  0  0  0  0  0
  -42.3321   63.8404   66.8439 C   0  0  1  0  0  0  0  0  0  0  0  0
  -42.8145   65.0965   66.3669 O   0  0  0  0  0  0  0  0  0  0  0  0
  -40.7775   62.1436   68.8598 P   0  0  2  0  0  0  0  0  0  0  0  0
  -42.8449   63.6365   68.2489 C   0  0  0  0  0  0  0  0  0  0  0  0
  -42.3463   62.3763   68.7410 O   0  0  0  0  0  0  0  0  0  0  0  0
  -41.0336   60.5510   70.9298 C   0  0  0  0  0  0  0  0  0  0  0  0
  -40.4443   60.9917   67.9975 O   0  5  0  0  0  0  0  0  0  0  0  0
  -40.5317   60.4834   72.3542 C   0  0  0  0  0  0  0  0  0  0  0  0
  -40.4481   61.7451   70.3597 O   0  0  0  0  0  0  0  0  0  0  0  0
  -42.4883   59.2589   73.2702 C   0  0  0  0  0  0  0  0  0  0  0  0
  -40.1316   63.4456   68.6022 O   0  0  0  0  0  0  0  0  0  0  0  0
  -40.4294   59.3844   74.5523 C   0  0  0  0  0  0  0  0  0  0  0  0
  -42.2078   61.5072   66.4029 O   0  0  0  0  0  0  0  0  0  0  0  0
  -40.5292   58.0283   72.5268 C   0  0  0  0  0  0  0  0  0  0  0  0
  -40.0293   61.9106   66.6489 O   0  0  0  0  0  0  0  0  0  0  0  0
  -42.7041   62.7523   65.8631 C   0  0  0  0  0  0  0  0  0  0  0  0
  -40.9154   61.2318   66.2282 C   0  0  0  0  0  0  0  0  0  0  0  0
  -40.7200   59.9800   65.4370 C   0  0  0  0  0  0  0  0  0  0  0  0
  -42.0280   59.3300   65.0270 C   0  0  0  0  0  0  0  0  0  0  0  0
  -42.8960   58.9560   66.2090 C   0  0  0  0  0  0  0  0  0  0  0  0
  -42.2531   57.9915   67.1776 C   0  0  0  0  0  0  0  0  0  0  0  0
  -43.1355   57.6153   68.3405 C   0  0  0  0  0  0  0  0  0  0  0  0
  -42.4571   56.6674   69.2927 C   0  0  0  0  0  0  0  0  0  0  0  0
  -42.0133   55.3641   68.6971 C   0  0  0  0  0  0  0  0  0  0  0  0
  -41.3719   54.4674   69.6695 C   0  0  0  0  0  0  0  0  0  0  0  0
  -40.0958   54.3862   69.9756 C   0  0  0  0  0  0  0  0  0  0  0  0
  -38.9736   55.1945   69.4356 C   0  0  0  0  0  0  0  0  0  0  0  0
  -37.8149   55.4200   70.3853 C   0  0  0  0  0  0  0  0  0  0  0  0
  -36.7227   56.2590   69.7809 C   0  0  0  0  0  0  0  0  0  0  0  0
  -37.1476   57.6462   69.3722 C   0  0  0  0  0  0  0  0  0  0  0  0
  -37.6532   58.4668   70.5382 C   0  0  0  0  0  0  0  0  0  0  0  0
  -36.6510   58.6925   71.6356 C   0  0  0  0  0  0  0  0  0  0  0  0
  -35.4474   59.4180   71.1836 C   0  0  0  0  0  0  0  0  0  0  0  0
  -35.7363   60.7515   70.6597 C   0  0  0  0  0  0  0  0  0  0  0  0
  -41.2642   63.8117   66.9044 H   0  0  0  0  0  0  0  0  0  0  0  0
  -43.7835   65.0773   66.3283 H   0  0  0  0  0  0  0  0  0  0  0  0
  -43.9148   63.6240   68.2441 H   0  0  0  0  0  0  0  0  0  0  0  0
  -42.5110   64.4337   68.8797 H   0  0  0  0  0  0  0  0  0  0  0  0
  -42.1015   60.6161   70.9140 H   0  0  0  0  0  0  0  0  0  0  0  0
  -40.7620   59.6770   70.3755 H   0  0  0  0  0  0  0  0  0  0  0  0
  -39.4625   60.4595   72.3228 H   0  0  0  0  0  0  0  0  0  0  0  0
  -40.9390   61.3440   72.8425 H   0  0  0  0  0  0  0  0  0  0  0  0
  -42.8373   60.1597   73.7304 H   0  0  0  0  0  0  0  0  0  0  0  0
  -42.7867   58.4180   73.8608 H   0  0  0  0  0  0  0  0  0  0  0  0
  -42.9084   59.1733   72.2899 H   0  0  0  0  0  0  0  0  0  0  0  0
  -40.3127   63.7216   67.6901 H   0  0  0  0  0  0  0  0  0  0  0  0
  -40.7620   60.2892   75.0167 H   0  0  0  0  0  0  0  0  0  0  0  0
  -39.3607   59.3827   74.4992 H   0  0  0  0  0  0  0  0  0  0  0  0
  -40.7592   58.5455   75.1287 H   0  0  0  0  0  0  0  0  0  0  0  0
  -40.9337   57.9610   71.5385 H   0  0  0  0  0  0  0  0  0  0  0  0
  -40.8589   57.1906   73.1050 H   0  0  0  0  0  0  0  0  0  0  0  0
  -39.4604   58.0278   72.4755 H   0  0  0  0  0  0  0  0  0  0  0  0
  -42.2537   62.9456   64.9120 H   0  0  0  0  0  0  0  0  0  0  0  0
  -43.7641   62.7115   65.7229 H   0  0  0  0  0  0  0  0  0  0  0  0
  -40.1644   59.2843   66.0305 H   0  0  0  0  0  0  0  0  0  0  0  0
  -40.1985   60.2448   64.5410 H   0  0  0  0  0  0  0  0  0  0  0  0
  -41.8086   58.4429   64.4703 H   0  0  0  0  0  0  0  0  0  0  0  0
  -42.5713   60.0428   64.4426 H   0  0  0  0  0  0  0  0  0  0  0  0
  -43.7930   58.5073   65.8363 H   0  0  0  0  0  0  0  0  0  0  0  0
  -43.0753   59.8597   66.7531 H   0  0  0  0  0  0  0  0  0  0  0  0
  -41.3629   58.4436   67.5625 H   0  0  0  0  0  0  0  0  0  0  0  0
  -42.0545   57.0914   66.6342 H   0  0  0  0  0  0  0  0  0  0  0  0
  -44.0208   57.1478   67.9628 H   0  0  0  0  0  0  0  0  0  0  0  0
  -43.3642   58.5109   68.8794 H   0  0  0  0  0  0  0  0  0  0  0  0
  -43.1410   56.4515   70.0867 H   0  0  0  0  0  0  0  0  0  0  0  0
  -41.5652   57.1625   69.6157 H   0  0  0  0  0  0  0  0  0  0  0  0
  -41.3149   55.5697   67.9130 H   0  0  0  0  0  0  0  0  0  0  0  0
  -42.8894   54.8661   68.3375 H   0  0  0  0  0  0  0  0  0  0  0  0
  -42.0003   53.8225   70.1737 H   0  0  0  0  0  0  0  0  0  0  0  0
  -39.8432   53.6731   70.6775 H   0  0  0  0  0  0  0  0  0  0  0  0
  -39.3616   56.1517   69.1562 H   0  0  0  0  0  0  0  0  0  0  0  0
  -38.5760   54.6336   68.6157 H   0  0  0  0  0  0  0  0  0  0  0  0
  -37.4054   54.4696   70.6572 H   0  0  0  0  0  0  0  0  0  0  0  0
  -38.1929   55.9467   71.2365 H   0  0  0  0  0  0  0  0  0  0  0  0
  -36.3558   55.7533   68.9122 H   0  0  0  0  0  0  0  0  0  0  0  0
  -35.9800   56.3820   70.5412 H   0  0  0  0  0  0  0  0  0  0  0  0
  -37.9290   57.5652   68.6457 H   0  0  0  0  0  0  0  0  0  0  0  0
  -36.2885   58.1442   68.9737 H   0  0  0  0  0  0  0  0  0  0  0  0
  -38.4979   57.9619   70.9583 H   0  0  0  0  0  0  0  0  0  0  0  0
  -37.8898   59.4332   70.1446 H   0  0  0  0  0  0  0  0  0  0  0  0
  -36.3496   57.7413   72.0220 H   0  0  0  0  0  0  0  0  0  0  0  0
  -37.1255   59.2968   72.3803 H   0  0  0  0  0  0  0  0  0  0  0  0
  -34.9758   58.8454   70.4124 H   0  0  0  0  0  0  0  0  0  0  0  0
  -34.8152   59.5442   72.0376 H   0  0  0  0  0  0  0  0  0  0  0  0
  -36.3691   60.6679   69.8009 H   0  0  0  0  0  0  0  0  0  0  0  0
  -34.8212   61.2320   70.3830 H   0  0  0  0  0  0  0  0  0  0  0  0
  -36.2302   61.3308   71.4116 H   0  0  0  0  0  0  0  0  0  0  0  0
  1  9  1  0  0  0  0
  1 11  1  0  0  0  0
  1 13  1  0  0  0  0
  1 15  1  0  0  0  0
  2  3  1  0  0  0  0
  2  5  1  0  0  0  0
  2 17  1  0  0  0  0
  2 36  1  1  0  0  0
  3 37  1  0  0  0  0
  4  6  1  0  0  0  0
  4  8  2  6  0  0  0
  4 10  1  0  0  0  0
  4 12  1  0  0  0  0
  5  6  1  0  0  0  0
  5 38  1  0  0  0  0
  5 39  1  0  0  0  0
  7  9  1  0  0  0  0
  7 10  1  0  0  0  0
  7 40  1  0  0  0  0
  7 41  1  0  0  0  0
  9 42  1  0  0  0  0
  9 43  1  0  0  0  0
 11 44  1  0  0  0  0
 11 45  1  0  0  0  0
 11 46  1  0  0  0  0
 12 47  1  0  0  0  0
 13 48  1  0  0  0  0
 13 49  1  0  0  0  0
 13 50  1  0  0  0  0
 14 17  1  0  0  0  0
 14 18  1  0  0  0  0
 15 51  1  0  0  0  0
 15 52  1  0  0  0  0
 15 53  1  0  0  0  0
 16 18  2  0  0  0  0
 17 54  1  0  0  0  0
 17 55  1  0  0  0  0
 18 19  1  0  0  0  0
 19 20  1  0  0  0  0
 19 56  1  0  0  0  0
 19 57  1  0  0  0  0
 20 21  1  0  0  0  0
 20 58  1  0  0  0  0
 20 59  1  0  0  0  0
 21 22  1  0  0  0  0
 21 60  1  0  0  0  0
 21 61  1  0  0  0  0
 22 23  1  0  0  0  0
 22 62  1  0  0  0  0
 22 63  1  0  0  0  0
 23 24  1  0  0  0  0
 23 64  1  0  0  0  0
 23 65  1  0  0  0  0
 24 25  1  0  0  0  0
 24 66  1  0  0  0  0
 24 67  1  0  0  0  0
 25 26  1  0  0  0  0
 25 68  1  0  0  0  0
 25 69  1  0  0  0  0
 26 27  2  0  0  0  0
 26 70  1  0  0  0  0
 27 28  1  0  0  0  0
 27 71  1  0  0  0  0
 28 29  1  0  0  0  0
 28 72  1  0  0  0  0
 28 73  1  0  0  0  0
 29 30  1  0  0  0  0
 29 74  1  0  0  0  0
 29 75  1  0  0  0  0
 30 31  1  0  0  0  0
 30 76  1  0  0  0  0
 30 77  1  0  0  0  0
 31 32  1  0  0  0  0
 31 78  1  0  0  0  0
 31 79  1  0  0  0  0
 32 33  1  0  0  0  0
 32 80  1  0  0  0  0
 32 81  1  0  0  0  0
 33 34  1  0  0  0  0
 33 82  1  0  0  0  0
 33 83  1  0  0  0  0
 34 35  1  0  0  0  0
 34 84  1  0  0  0  0
 34 85  1  0  0  0  0
 35 86  1  0  0  0  0
 35 87  1  0  0  0  0
 35 88  1  0  0  0  0
M  CHG  1   8  -1
M  END
$$$$