/media/chris/experiments/cd1a-new-docking/inputs/ligands/4x6c_ligand.pdb
 OpenBabel07012320263D

 88 87  0  0  1  0  0  0  0  0999 V2000
  -43.2455   60.7982   71.0788 N   0  0  0  0  0  4  0  0  0  0  0  0
  -39.9670   63.7423   67.6386 C   0  0  1  0  0  0  0  0  0  0  0  0
  -41.2383   63.8551   66.9989 O   0  0  0  0  0  0  0  0  0  0  0  0
  -41.2965   64.7653   71.1652 P   0  0  2  0  0  0  0  0  0  0  0  0
  -40.1945   63.5517   69.1186 C   0  0  0  0  0  0  0  0  0  0  0  0
  -40.9275   64.6874   69.6202 O   0  0  0  0  0  0  0  0  0  0  0  0
  -41.3723   62.2854   72.0201 C   0  0  0  0  0  0  0  0  0  0  0  0
  -40.0239   64.7651   71.9147 O   0  5  0  0  0  0  0  0  0  0  0  0
  -42.4189   61.2249   72.2757 C   0  0  0  0  0  0  0  0  0  0  0  0
  -42.0934   63.4489   71.5511 O   0  0  0  0  0  0  0  0  0  0  0  0
  -42.3809   60.2196   70.0053 C   0  0  0  0  0  0  0  0  0  0  0  0
  -42.2258   65.9009   71.3260 O   0  0  0  0  0  0  0  0  0  0  0  0
  -43.9692   61.9825   70.5229 C   0  0  0  0  0  0  0  0  0  0  0  0
  -39.9198   61.4286   67.0924 O   0  0  0  0  0  0  0  0  0  0  0  0
  -44.2415   59.7640   71.5005 C   0  0  0  0  0  0  0  0  0  0  0  0
  -41.8482   61.9662   66.1119 O   0  0  0  0  0  0  0  0  0  0  0  0
  -39.1613   62.6524   66.9697 C   0  0  0  0  0  0  0  0  0  0  0  0
  -40.9154   61.2318   66.2282 C   0  0  0  0  0  0  0  0  0  0  0  0
  -40.7200   59.9800   65.4370 C   0  0  0  0  0  0  0  0  0  0  0  0
  -42.0280   59.3300   65.0270 C   0  0  0  0  0  0  0  0  0  0  0  0
  -42.8960   58.9560   66.2090 C   0  0  0  0  0  0  0  0  0  0  0  0
  -44.2012   58.2902   65.8416 C   0  0  0  0  0  0  0  0  0  0  0  0
  -45.0623   57.9388   67.0279 C   0  0  0  0  0  0  0  0  0  0  0  0
  -44.3705   57.0027   67.9821 C   0  0  0  0  0  0  0  0  0  0  0  0
  -43.9464   55.6870   67.3997 C   0  0  0  0  0  0  0  0  0  0  0  0
  -45.0645   54.9035   66.8545 C   0  0  0  0  0  0  0  0  0  0  0  0
  -45.4655   53.7053   67.2180 C   0  0  0  0  0  0  0  0  0  0  0  0
  -44.9079   52.8411   68.2888 C   0  0  0  0  0  0  0  0  0  0  0  0
  -45.8998   51.9168   68.9650 C   0  0  0  0  0  0  0  0  0  0  0  0
  -47.0350   52.6584   69.6158 C   0  0  0  0  0  0  0  0  0  0  0  0
  -47.8732   53.4811   68.6711 C   0  0  0  0  0  0  0  0  0  0  0  0
  -48.5345   52.6425   67.5996 C   0  0  0  0  0  0  0  0  0  0  0  0
  -49.3710   53.4144   66.6177 C   0  0  0  0  0  0  0  0  0  0  0  0
  -48.5992   54.4188   65.8596 C   0  0  0  0  0  0  0  0  0  0  0  0
  -49.4117   55.1830   64.9151 C   0  0  0  0  0  0  0  0  0  0  0  0
  -39.3796   64.6305   67.5347 H   0  0  0  0  0  0  0  0  0  0  0  0
  -41.7347   63.0303   67.1182 H   0  0  0  0  0  0  0  0  0  0  0  0
  -39.2530   63.4792   69.6218 H   0  0  0  0  0  0  0  0  0  0  0  0
  -40.7491   62.6530   69.2910 H   0  0  0  0  0  0  0  0  0  0  0  0
  -40.6788   61.9525   71.2763 H   0  0  0  0  0  0  0  0  0  0  0  0
  -40.8085   62.5021   72.9033 H   0  0  0  0  0  0  0  0  0  0  0  0
  -41.9192   60.3573   72.6532 H   0  0  0  0  0  0  0  0  0  0  0  0
  -43.1128   61.6664   72.9601 H   0  0  0  0  0  0  0  0  0  0  0  0
  -41.6629   60.9492   69.6937 H   0  0  0  0  0  0  0  0  0  0  0  0
  -42.9887   59.9382   69.1708 H   0  0  0  0  0  0  0  0  0  0  0  0
  -41.8723   59.3573   70.3829 H   0  0  0  0  0  0  0  0  0  0  0  0
  -41.7703   66.7263   71.0976 H   0  0  0  0  0  0  0  0  0  0  0  0
  -43.2598   62.7242   70.2204 H   0  0  0  0  0  0  0  0  0  0  0  0
  -44.6141   62.3907   71.2729 H   0  0  0  0  0  0  0  0  0  0  0  0
  -44.5516   61.6802   69.6778 H   0  0  0  0  0  0  0  0  0  0  0  0
  -43.7269   58.9147   71.8989 H   0  0  0  0  0  0  0  0  0  0  0  0
  -44.8237   59.4637   70.6544 H   0  0  0  0  0  0  0  0  0  0  0  0
  -44.8862   60.1742   72.2495 H   0  0  0  0  0  0  0  0  0  0  0  0
  -38.2131   62.5469   67.4542 H   0  0  0  0  0  0  0  0  0  0  0  0
  -38.9811   62.8878   65.9416 H   0  0  0  0  0  0  0  0  0  0  0  0
  -40.1644   59.2843   66.0305 H   0  0  0  0  0  0  0  0  0  0  0  0
  -40.1985   60.2448   64.5410 H   0  0  0  0  0  0  0  0  0  0  0  0
  -41.8086   58.4429   64.4703 H   0  0  0  0  0  0  0  0  0  0  0  0
  -42.5713   60.0428   64.4426 H   0  0  0  0  0  0  0  0  0  0  0  0
  -43.1183   59.8483   66.7560 H   0  0  0  0  0  0  0  0  0  0  0  0
  -42.3406   58.2423   66.7808 H   0  0  0  0  0  0  0  0  0  0  0  0
  -43.9814   57.3901   65.3063 H   0  0  0  0  0  0  0  0  0  0  0  0
  -44.7539   58.9929   65.2537 H   0  0  0  0  0  0  0  0  0  0  0  0
  -45.9577   57.4707   66.6758 H   0  0  0  0  0  0  0  0  0  0  0  0
  -45.2749   58.8446   67.5562 H   0  0  0  0  0  0  0  0  0  0  0  0
  -45.0397   56.8042   68.7931 H   0  0  0  0  0  0  0  0  0  0  0  0
  -43.4695   57.4976   68.2790 H   0  0  0  0  0  0  0  0  0  0  0  0
  -43.4725   55.1127   68.1681 H   0  0  0  0  0  0  0  0  0  0  0  0
  -43.2834   55.8997   66.5872 H   0  0  0  0  0  0  0  0  0  0  0  0
  -45.6003   55.3486   66.0930 H   0  0  0  0  0  0  0  0  0  0  0  0
  -46.2661   53.3179   66.6947 H   0  0  0  0  0  0  0  0  0  0  0  0
  -44.4857   53.4768   69.0388 H   0  0  0  0  0  0  0  0  0  0  0  0
  -44.1933   52.2047   67.8099 H   0  0  0  0  0  0  0  0  0  0  0  0
  -45.3855   51.3524   69.7145 H   0  0  0  0  0  0  0  0  0  0  0  0
  -46.3181   51.2843   68.2101 H   0  0  0  0  0  0  0  0  0  0  0  0
  -46.6245   53.3144   70.3547 H   0  0  0  0  0  0  0  0  0  0  0  0
  -47.6851   51.9150   70.0276 H   0  0  0  0  0  0  0  0  0  0  0  0
  -47.2448   54.2071   68.1990 H   0  0  0  0  0  0  0  0  0  0  0  0
  -48.6486   53.9440   69.2451 H   0  0  0  0  0  0  0  0  0  0  0  0
  -49.1651   51.9248   68.0814 H   0  0  0  0  0  0  0  0  0  0  0  0
  -47.7418   52.1985   67.0345 H   0  0  0  0  0  0  0  0  0  0  0  0
  -50.1484   53.9170   67.1543 H   0  0  0  0  0  0  0  0  0  0  0  0
  -49.7602   52.7121   65.9103 H   0  0  0  0  0  0  0  0  0  0  0  0
  -47.8296   53.9140   65.3139 H   0  0  0  0  0  0  0  0  0  0  0  0
  -48.2021   55.1139   66.5695 H   0  0  0  0  0  0  0  0  0  0  0  0
  -49.8285   54.5205   64.1856 H   0  0  0  0  0  0  0  0  0  0  0  0
  -48.7996   55.9121   64.4265 H   0  0  0  0  0  0  0  0  0  0  0  0
  -50.2019   55.6761   65.4419 H   0  0  0  0  0  0  0  0  0  0  0  0
  1  9  1  0  0  0  0
  1 11  1  0  0  0  0
  1 13  1  0  0  0  0
  1 15  1  0  0  0  0
  2  3  1  0  0  0  0
  2  5  1  0  0  0  0
  2 17  1  0  0  0  0
  2 36  1  6  0  0  0
  3 37  1  0  0  0  0
  4  6  1  0  0  0  0
  4  8  2  1  0  0  0
  4 10  1  0  0  0  0
  4 12  1  0  0  0  0
  5  6  1  0  0  0  0
  5 38  1  0  0  0  0
  5 39  1  0  0  0  0
  7  9  1  0  0  0  0
  7 10  1  0  0  0  0
  7 40  1  0  0  0  0
  7 41  1  0  0  0  0
  9 42  1  0  0  0  0
  9 43  1  0  0  0  0
 11 44  1  0  0  0  0
 11 45  1  0  0  0  0
 11 46  1  0  0  0  0
 12 47  1  0  0  0  0
 13 48  1  0  0  0  0
 13 49  1  0  0  0  0
 13 50  1  0  0  0  0
 14 17  1  0  0  0  0
 14 18  1  0  0  0  0
 15 51  1  0  0  0  0
 15 52  1  0  0  0  0
 15 53  1  0  0  0  0
 16 18  2  0  0  0  0
 17 54  1  0  0  0  0
 17 55  1  0  0  0  0
 18 19  1  0  0  0  0
 19 20  1  0  0  0  0
 19 56  1  0  0  0  0
 19 57  1  0  0  0  0
 20 21  1  0  0  0  0
 20 58  1  0  0  0  0
 20 59  1  0  0  0  0
 21 22  1  0  0  0  0
 21 60  1  0  0  0  0
 21 61  1  0  0  0  0
 22 23  1  0  0  0  0
 22 62  1  0  0  0  0
 22 63  1  0  0  0  0
 23 24  1  0  0  0  0
 23 64  1  0  0  0  0
 23 65  1  0  0  0  0
 24 25  1  0  0  0  0
 24 66  1  0  0  0  0
 24 67  1  0  0  0  0
 25 26  1  0  0  0  0
 25 68  1  0  0  0  0
 25 69  1  0  0  0  0
 26 27  2  0  0  0  0
 26 70  1  0  0  0  0
 27 28  1  0  0  0  0
 27 71  1  0  0  0  0
 28 29  1  0  0  0  0
 28 72  1  0  0  0  0
 28 73  1  0  0  0  0
 29 30  1  0  0  0  0
 29 74  1  0  0  0  0
 29 75  1  0  0  0  0
 30 31  1  0  0  0  0
 30 76  1  0  0  0  0
 30 77  1  0  0  0  0
 31 32  1  0  0  0  0
 31 78  1  0  0  0  0
 31 79  1  0  0  0  0
 32 33  1  0  0  0  0
 32 80  1  0  0  0  0
 32 81  1  0  0  0  0
 33 34  1  0  0  0  0
 33 82  1  0  0  0  0
 33 83  1  0  0  0  0
 34 35  1  0  0  0  0
 34 84  1  0  0  0  0
 34 85  1  0  0  0  0
 35 86  1  0  0  0  0
 35 87  1  0  0  0  0
 35 88  1  0  0  0  0
M  CHG  1   8  -1
M  END
$$$$