/media/chris/experiments/cd1a-new-docking/inputs/ligands/4x6c_ligand.pdb
 OpenBabel07012320263D

 88 87  0  0  1  0  0  0  0  0999 V2000
  -45.1671   71.2021   64.1847 N   0  0  0  0  0  4  0  0  0  0  0  0
  -41.4020   63.8609   64.7992 C   0  0  1  0  0  0  0  0  0  0  0  0
  -42.1115   63.4553   63.6287 O   0  0  0  0  0  0  0  0  0  0  0  0
  -42.7707   67.5182   64.7532 P   0  0  2  0  0  0  0  0  0  0  0  0
  -41.2746   65.3649   64.7809 C   0  0  0  0  0  0  0  0  0  0  0  0
  -42.5978   65.9376   64.7866 O   0  0  0  0  0  0  0  0  0  0  0  0
  -44.4505   69.2801   65.7335 C   0  0  0  0  0  0  0  0  0  0  0  0
  -41.5881   68.0973   65.4220 O   0  5  0  0  0  0  0  0  0  0  0  0
  -44.7398   69.7548   64.3277 C   0  0  0  0  0  0  0  0  0  0  0  0
  -44.0520   67.8945   65.6097 O   0  0  0  0  0  0  0  0  0  0  0  0
  -46.4128   71.4759   64.9646 C   0  0  0  0  0  0  0  0  0  0  0  0
  -43.0579   67.8873   63.3531 O   0  0  0  0  0  0  0  0  0  0  0  0
  -45.4286   71.5065   62.7444 C   0  0  0  0  0  0  0  0  0  0  0  0
  -42.0474   61.8525   65.8962 O   0  0  0  0  0  0  0  0  0  0  0  0
  -44.0799   72.0981   64.6893 C   0  0  0  0  0  0  0  0  0  0  0  0
  -40.1534   61.6365   67.0519 O   0  0  0  0  0  0  0  0  0  0  0  0
  -42.0818   63.2915   66.0232 C   0  0  0  0  0  0  0  0  0  0  0  0
  -40.9154   61.2318   66.2282 C   0  0  0  0  0  0  0  0  0  0  0  0
  -40.7200   59.9800   65.4370 C   0  0  0  0  0  0  0  0  0  0  0  0
  -42.0280   59.3300   65.0270 C   0  0  0  0  0  0  0  0  0  0  0  0
  -42.8960   58.9560   66.2090 C   0  0  0  0  0  0  0  0  0  0  0  0
  -44.2012   58.2902   65.8416 C   0  0  0  0  0  0  0  0  0  0  0  0
  -45.0623   57.9388   67.0279 C   0  0  0  0  0  0  0  0  0  0  0  0
  -46.3454   57.2626   66.6256 C   0  0  0  0  0  0  0  0  0  0  0  0
  -46.1864   55.9650   65.8901 C   0  0  0  0  0  0  0  0  0  0  0  0
  -45.4253   56.0937   64.6390 C   0  0  0  0  0  0  0  0  0  0  0  0
  -45.8246   55.8165   63.4173 C   0  0  0  0  0  0  0  0  0  0  0  0
  -47.1552   55.3230   62.9809 C   0  0  0  0  0  0  0  0  0  0  0  0
  -48.1702   55.1168   64.0866 C   0  0  0  0  0  0  0  0  0  0  0  0
  -49.4879   54.6008   63.5772 C   0  0  0  0  0  0  0  0  0  0  0  0
  -50.1667   55.4935   62.5702 C   0  0  0  0  0  0  0  0  0  0  0  0
  -51.4942   54.9387   62.1027 C   0  0  0  0  0  0  0  0  0  0  0  0
  -51.4212   53.5857   61.4516 C   0  0  0  0  0  0  0  0  0  0  0  0
  -52.7341   53.0883   60.9955 C   0  0  0  0  0  0  0  0  0  0  0  0
  -53.3669   53.9502   59.9990 C   0  0  0  0  0  0  0  0  0  0  0  0
  -40.4051   63.4731   64.8249 H   0  0  0  0  0  0  0  0  0  0  0  0
  -43.0067   63.8284   63.6476 H   0  0  0  0  0  0  0  0  0  0  0  0
  -40.7525   65.6719   63.8988 H   0  0  0  0  0  0  0  0  0  0  0  0
  -40.7285   65.6964   65.6392 H   0  0  0  0  0  0  0  0  0  0  0  0
  -45.3268   69.3625   66.3420 H   0  0  0  0  0  0  0  0  0  0  0  0
  -43.6869   69.8686   66.1977 H   0  0  0  0  0  0  0  0  0  0  0  0
  -43.8512   69.6180   63.7475 H   0  0  0  0  0  0  0  0  0  0  0  0
  -45.5759   69.1753   63.9961 H   0  0  0  0  0  0  0  0  0  0  0  0
  -47.1998   70.8414   64.6140 H   0  0  0  0  0  0  0  0  0  0  0  0
  -46.6961   72.4997   64.8363 H   0  0  0  0  0  0  0  0  0  0  0  0
  -46.2340   71.2825   66.0017 H   0  0  0  0  0  0  0  0  0  0  0  0
  -42.2926   67.6703   62.7980 H   0  0  0  0  0  0  0  0  0  0  0  0
  -46.2058   70.8675   62.3802 H   0  0  0  0  0  0  0  0  0  0  0  0
  -44.5364   71.3418   62.1773 H   0  0  0  0  0  0  0  0  0  0  0  0
  -45.7310   72.5280   62.6449 H   0  0  0  0  0  0  0  0  0  0  0  0
  -43.8901   71.8829   65.7201 H   0  0  0  0  0  0  0  0  0  0  0  0
  -44.3834   73.1191   64.5881 H   0  0  0  0  0  0  0  0  0  0  0  0
  -43.1888   71.9328   64.1205 H   0  0  0  0  0  0  0  0  0  0  0  0
  -43.0951   63.6317   66.0722 H   0  0  0  0  0  0  0  0  0  0  0  0
  -41.5851   63.6074   66.9167 H   0  0  0  0  0  0  0  0  0  0  0  0
  -40.1644   59.2843   66.0305 H   0  0  0  0  0  0  0  0  0  0  0  0
  -40.1985   60.2448   64.5410 H   0  0  0  0  0  0  0  0  0  0  0  0
  -41.8086   58.4429   64.4703 H   0  0  0  0  0  0  0  0  0  0  0  0
  -42.5713   60.0428   64.4426 H   0  0  0  0  0  0  0  0  0  0  0  0
  -43.1183   59.8483   66.7560 H   0  0  0  0  0  0  0  0  0  0  0  0
  -42.3406   58.2423   66.7808 H   0  0  0  0  0  0  0  0  0  0  0  0
  -43.9814   57.3901   65.3063 H   0  0  0  0  0  0  0  0  0  0  0  0
  -44.7539   58.9929   65.2537 H   0  0  0  0  0  0  0  0  0  0  0  0
  -45.2991   58.8372   67.5587 H   0  0  0  0  0  0  0  0  0  0  0  0
  -44.5114   57.2554   67.6397 H   0  0  0  0  0  0  0  0  0  0  0  0
  -46.8891   57.9348   65.9952 H   0  0  0  0  0  0  0  0  0  0  0  0
  -46.8512   57.0241   67.5379 H   0  0  0  0  0  0  0  0  0  0  0  0
  -47.1593   55.5850   65.6580 H   0  0  0  0  0  0  0  0  0  0  0  0
  -45.6367   55.3050   66.5282 H   0  0  0  0  0  0  0  0  0  0  0  0
  -44.4592   56.4447   64.7308 H   0  0  0  0  0  0  0  0  0  0  0  0
  -45.1275   55.9595   62.6699 H   0  0  0  0  0  0  0  0  0  0  0  0
  -47.0125   54.3853   62.4856 H   0  0  0  0  0  0  0  0  0  0  0  0
  -47.5593   56.0873   62.3506 H   0  0  0  0  0  0  0  0  0  0  0  0
  -48.3360   56.0528   64.5777 H   0  0  0  0  0  0  0  0  0  0  0  0
  -47.7732   54.3828   64.7565 H   0  0  0  0  0  0  0  0  0  0  0  0
  -50.1449   54.4815   64.4133 H   0  0  0  0  0  0  0  0  0  0  0  0
  -49.2777   53.6809   63.0727 H   0  0  0  0  0  0  0  0  0  0  0  0
  -49.5237   55.6043   61.7221 H   0  0  0  0  0  0  0  0  0  0  0  0
  -50.3574   56.4326   63.0461 H   0  0  0  0  0  0  0  0  0  0  0  0
  -51.9110   55.6255   61.3960 H   0  0  0  0  0  0  0  0  0  0  0  0
  -52.0942   54.8172   62.9802 H   0  0  0  0  0  0  0  0  0  0  0  0
  -51.0205   52.8894   62.1583 H   0  0  0  0  0  0  0  0  0  0  0  0
  -50.7996   53.6825   60.5860 H   0  0  0  0  0  0  0  0  0  0  0  0
  -53.3830   53.0170   61.8434 H   0  0  0  0  0  0  0  0  0  0  0  0
  -52.5685   52.1382   60.5321 H   0  0  0  0  0  0  0  0  0  0  0  0
  -53.5497   54.9142   60.4258 H   0  0  0  0  0  0  0  0  0  0  0  0
  -54.2942   53.5157   59.6889 H   0  0  0  0  0  0  0  0  0  0  0  0
  -52.7199   54.0516   59.1528 H   0  0  0  0  0  0  0  0  0  0  0  0
  1  9  1  0  0  0  0
  1 11  1  0  0  0  0
  1 13  1  0  0  0  0
  1 15  1  0  0  0  0
  2  3  1  0  0  0  0
  2  5  1  0  0  0  0
  2 17  1  0  0  0  0
  2 36  1  6  0  0  0
  3 37  1  0  0  0  0
  4  6  1  0  0  0  0
  4  8  2  1  0  0  0
  4 10  1  0  0  0  0
  4 12  1  0  0  0  0
  5  6  1  0  0  0  0
  5 38  1  0  0  0  0
  5 39  1  0  0  0  0
  7  9  1  0  0  0  0
  7 10  1  0  0  0  0
  7 40  1  0  0  0  0
  7 41  1  0  0  0  0
  9 42  1  0  0  0  0
  9 43  1  0  0  0  0
 11 44  1  0  0  0  0
 11 45  1  0  0  0  0
 11 46  1  0  0  0  0
 12 47  1  0  0  0  0
 13 48  1  0  0  0  0
 13 49  1  0  0  0  0
 13 50  1  0  0  0  0
 14 17  1  0  0  0  0
 14 18  1  0  0  0  0
 15 51  1  0  0  0  0
 15 52  1  0  0  0  0
 15 53  1  0  0  0  0
 16 18  2  0  0  0  0
 17 54  1  0  0  0  0
 17 55  1  0  0  0  0
 18 19  1  0  0  0  0
 19 20  1  0  0  0  0
 19 56  1  0  0  0  0
 19 57  1  0  0  0  0
 20 21  1  0  0  0  0
 20 58  1  0  0  0  0
 20 59  1  0  0  0  0
 21 22  1  0  0  0  0
 21 60  1  0  0  0  0
 21 61  1  0  0  0  0
 22 23  1  0  0  0  0
 22 62  1  0  0  0  0
 22 63  1  0  0  0  0
 23 24  1  0  0  0  0
 23 64  1  0  0  0  0
 23 65  1  0  0  0  0
 24 25  1  0  0  0  0
 24 66  1  0  0  0  0
 24 67  1  0  0  0  0
 25 26  1  0  0  0  0
 25 68  1  0  0  0  0
 25 69  1  0  0  0  0
 26 27  2  0  0  0  0
 26 70  1  0  0  0  0
 27 28  1  0  0  0  0
 27 71  1  0  0  0  0
 28 29  1  0  0  0  0
 28 72  1  0  0  0  0
 28 73  1  0  0  0  0
 29 30  1  0  0  0  0
 29 74  1  0  0  0  0
 29 75  1  0  0  0  0
 30 31  1  0  0  0  0
 30 76  1  0  0  0  0
 30 77  1  0  0  0  0
 31 32  1  0  0  0  0
 31 78  1  0  0  0  0
 31 79  1  0  0  0  0
 32 33  1  0  0  0  0
 32 80  1  0  0  0  0
 32 81  1  0  0  0  0
 33 34  1  0  0  0  0
 33 82  1  0  0  0  0
 33 83  1  0  0  0  0
 34 35  1  0  0  0  0
 34 84  1  0  0  0  0
 34 85  1  0  0  0  0
 35 86  1  0  0  0  0
 35 87  1  0  0  0  0
 35 88  1  0  0  0  0
M  CHG  1   8  -1
M  END
$$$$