/media/chris/experiments/cd1a-new-docking/inputs/ligands/4x6c_ligand.pdb
 OpenBabel07012320263D

 88 87  0  0  1  0  0  0  0  0999 V2000
  -33.6308   64.4521   65.7936 N   0  0  0  0  0  4  0  0  0  0  0  0
  -37.8117   62.0408   65.7336 C   0  0  1  0  0  0  0  0  0  0  0  0
  -38.6421   62.8951   66.5203 O   0  0  0  0  0  0  0  0  0  0  0  0
  -35.8767   61.3169   67.9713 P   0  0  2  0  0  0  0  0  0  0  0  0
  -37.8296   60.6623   66.3484 C   0  0  0  0  0  0  0  0  0  0  0  0
  -37.3406   60.7569   67.7015 O   0  0  0  0  0  0  0  0  0  0  0  0
  -33.9211   61.9579   66.3430 C   0  0  0  0  0  0  0  0  0  0  0  0
  -35.9982   62.7780   68.1491 O   0  5  0  0  0  0  0  0  0  0  0  0
  -34.5618   63.3162   66.1687 C   0  0  0  0  0  0  0  0  0  0  0  0
  -34.9985   61.0516   66.6769 O   0  0  0  0  0  0  0  0  0  0  0  0
  -32.9557   64.1863   64.4865 C   0  0  0  0  0  0  0  0  0  0  0  0
  -35.3027   60.5048   69.0621 O   0  0  0  0  0  0  0  0  0  0  0  0
  -32.5835   64.6098   66.8489 C   0  0  0  0  0  0  0  0  0  0  0  0
  -39.6306   61.6754   64.2463 O   0  0  0  0  0  0  0  0  0  0  0  0
  -34.4119   65.7234   65.6791 C   0  0  0  0  0  0  0  0  0  0  0  0
  -39.4598   59.5996   63.4520 O   0  0  0  0  0  0  0  0  0  0  0  0
  -38.2508   62.1024   64.2887 C   0  0  0  0  0  0  0  0  0  0  0  0
  -39.8706   60.3644   64.2700 C   0  0  0  0  0  0  0  0  0  0  0  0
  -40.7200   59.9800   65.4370 C   0  0  0  0  0  0  0  0  0  0  0  0
  -42.0280   59.3300   65.0270 C   0  0  0  0  0  0  0  0  0  0  0  0
  -42.8960   58.9560   66.2090 C   0  0  0  0  0  0  0  0  0  0  0  0
  -42.2531   57.9915   67.1776 C   0  0  0  0  0  0  0  0  0  0  0  0
  -41.8564   56.6765   66.5567 C   0  0  0  0  0  0  0  0  0  0  0  0
  -40.8515   56.8447   65.4489 C   0  0  0  0  0  0  0  0  0  0  0  0
  -40.4214   55.5772   64.7715 C   0  0  0  0  0  0  0  0  0  0  0  0
  -39.8060   54.6065   65.6881 C   0  0  0  0  0  0  0  0  0  0  0  0
  -39.3197   53.4191   65.4011 C   0  0  0  0  0  0  0  0  0  0  0  0
  -39.2448   52.7591   64.0733 C   0  0  0  0  0  0  0  0  0  0  0  0
  -38.4246   53.4865   63.0276 C   0  0  0  0  0  0  0  0  0  0  0  0
  -36.9851   53.6533   63.4305 C   0  0  0  0  0  0  0  0  0  0  0  0
  -36.1318   54.3871   62.4279 C   0  0  0  0  0  0  0  0  0  0  0  0
  -36.6182   55.7964   62.1711 C   0  0  0  0  0  0  0  0  0  0  0  0
  -36.6285   56.6926   63.3780 C   0  0  0  0  0  0  0  0  0  0  0  0
  -37.1248   58.0524   63.0883 C   0  0  0  0  0  0  0  0  0  0  0  0
  -36.3387   58.7533   62.0749 C   0  0  0  0  0  0  0  0  0  0  0  0
  -36.7897   62.3576   65.7309 H   0  0  0  0  0  0  0  0  0  0  0  0
  -39.5560   62.5712   66.4941 H   0  0  0  0  0  0  0  0  0  0  0  0
  -37.2009   60.0069   65.7827 H   0  0  0  0  0  0  0  0  0  0  0  0
  -38.8264   60.2733   66.3458 H   0  0  0  0  0  0  0  0  0  0  0  0
  -33.1995   61.9853   67.1325 H   0  0  0  0  0  0  0  0  0  0  0  0
  -33.4081   61.6488   65.4564 H   0  0  0  0  0  0  0  0  0  0  0  0
  -35.3009   63.2323   65.3996 H   0  0  0  0  0  0  0  0  0  0  0  0
  -34.9541   63.5732   67.1305 H   0  0  0  0  0  0  0  0  0  0  0  0
  -32.3927   63.2789   64.5539 H   0  0  0  0  0  0  0  0  0  0  0  0
  -32.2981   64.9976   64.2533 H   0  0  0  0  0  0  0  0  0  0  0  0
  -33.6930   64.0923   63.7169 H   0  0  0  0  0  0  0  0  0  0  0  0
  -35.8169   60.6427   69.8729 H   0  0  0  0  0  0  0  0  0  0  0  0
  -32.0230   63.7023   66.9335 H   0  0  0  0  0  0  0  0  0  0  0  0
  -33.0515   64.8286   67.7859 H   0  0  0  0  0  0  0  0  0  0  0  0
  -31.9266   65.4113   66.5825 H   0  0  0  0  0  0  0  0  0  0  0  0
  -35.1625   65.6140   64.9244 H   0  0  0  0  0  0  0  0  0  0  0  0
  -33.7533   66.5239   65.4137 H   0  0  0  0  0  0  0  0  0  0  0  0
  -34.8782   65.9412   66.6171 H   0  0  0  0  0  0  0  0  0  0  0  0
  -37.6462   61.4507   63.6931 H   0  0  0  0  0  0  0  0  0  0  0  0
  -38.1465   63.0941   63.9005 H   0  0  0  0  0  0  0  0  0  0  0  0
  -40.9394   60.8604   66.0042 H   0  0  0  0  0  0  0  0  0  0  0  0
  -40.1713   59.2627   66.0109 H   0  0  0  0  0  0  0  0  0  0  0  0
  -41.8086   58.4429   64.4703 H   0  0  0  0  0  0  0  0  0  0  0  0
  -42.5713   60.0428   64.4426 H   0  0  0  0  0  0  0  0  0  0  0  0
  -43.7930   58.5073   65.8363 H   0  0  0  0  0  0  0  0  0  0  0  0
  -43.0753   59.8597   66.7531 H   0  0  0  0  0  0  0  0  0  0  0  0
  -42.9469   57.7952   67.9682 H   0  0  0  0  0  0  0  0  0  0  0  0
  -41.3537   58.4544   67.5263 H   0  0  0  0  0  0  0  0  0  0  0  0
  -42.7314   56.2067   66.1584 H   0  0  0  0  0  0  0  0  0  0  0  0
  -41.4034   56.0788   67.3199 H   0  0  0  0  0  0  0  0  0  0  0  0
  -39.9808   57.3104   65.8611 H   0  0  0  0  0  0  0  0  0  0  0  0
  -41.3374   57.4304   64.6968 H   0  0  0  0  0  0  0  0  0  0  0  0
  -39.7105   55.8234   64.0107 H   0  0  0  0  0  0  0  0  0  0  0  0
  -41.3009   55.1192   64.3696 H   0  0  0  0  0  0  0  0  0  0  0  0
  -39.7487   54.8920   66.6781 H   0  0  0  0  0  0  0  0  0  0  0  0
  -38.9439   52.8797   66.1966 H   0  0  0  0  0  0  0  0  0  0  0  0
  -40.2420   52.6586   63.6986 H   0  0  0  0  0  0  0  0  0  0  0  0
  -38.7490   51.8252   64.2375 H   0  0  0  0  0  0  0  0  0  0  0  0
  -38.8507   54.4555   62.8718 H   0  0  0  0  0  0  0  0  0  0  0  0
  -38.4437   52.8970   62.1349 H   0  0  0  0  0  0  0  0  0  0  0  0
  -36.5650   52.6802   63.5770 H   0  0  0  0  0  0  0  0  0  0  0  0
  -36.9870   54.2489   64.3194 H   0  0  0  0  0  0  0  0  0  0  0  0
  -36.1458   53.8462   61.5048 H   0  0  0  0  0  0  0  0  0  0  0  0
  -35.1430   54.4539   62.8311 H   0  0  0  0  0  0  0  0  0  0  0  0
  -37.6168   55.7393   61.7911 H   0  0  0  0  0  0  0  0  0  0  0  0
  -35.9262   56.2313   61.4805 H   0  0  0  0  0  0  0  0  0  0  0  0
  -35.6297   56.7681   63.7541 H   0  0  0  0  0  0  0  0  0  0  0  0
  -37.2951   56.2563   64.0924 H   0  0  0  0  0  0  0  0  0  0  0  0
  -37.0982   58.6231   63.9929 H   0  0  0  0  0  0  0  0  0  0  0  0
  -38.1180   57.9509   62.7033 H   0  0  0  0  0  0  0  0  0  0  0  0
  -35.3345   58.8749   62.4237 H   0  0  0  0  0  0  0  0  0  0  0  0
  -36.7709   59.7145   61.8900 H   0  0  0  0  0  0  0  0  0  0  0  0
  -36.3351   58.1836   61.1692 H   0  0  0  0  0  0  0  0  0  0  0  0
  1  9  1  0  0  0  0
  1 11  1  0  0  0  0
  1 13  1  0  0  0  0
  1 15  1  0  0  0  0
  2  3  1  0  0  0  0
  2  5  1  0  0  0  0
  2 17  1  0  0  0  0
  2 36  1  1  0  0  0
  3 37  1  0  0  0  0
  4  6  1  0  0  0  0
  4  8  2  1  0  0  0
  4 10  1  0  0  0  0
  4 12  1  0  0  0  0
  5  6  1  0  0  0  0
  5 38  1  0  0  0  0
  5 39  1  0  0  0  0
  7  9  1  0  0  0  0
  7 10  1  0  0  0  0
  7 40  1  0  0  0  0
  7 41  1  0  0  0  0
  9 42  1  0  0  0  0
  9 43  1  0  0  0  0
 11 44  1  0  0  0  0
 11 45  1  0  0  0  0
 11 46  1  0  0  0  0
 12 47  1  0  0  0  0
 13 48  1  0  0  0  0
 13 49  1  0  0  0  0
 13 50  1  0  0  0  0
 14 17  1  0  0  0  0
 14 18  1  0  0  0  0
 15 51  1  0  0  0  0
 15 52  1  0  0  0  0
 15 53  1  0  0  0  0
 16 18  2  0  0  0  0
 17 54  1  0  0  0  0
 17 55  1  0  0  0  0
 18 19  1  0  0  0  0
 19 20  1  0  0  0  0
 19 56  1  0  0  0  0
 19 57  1  0  0  0  0
 20 21  1  0  0  0  0
 20 58  1  0  0  0  0
 20 59  1  0  0  0  0
 21 22  1  0  0  0  0
 21 60  1  0  0  0  0
 21 61  1  0  0  0  0
 22 23  1  0  0  0  0
 22 62  1  0  0  0  0
 22 63  1  0  0  0  0
 23 24  1  0  0  0  0
 23 64  1  0  0  0  0
 23 65  1  0  0  0  0
 24 25  1  0  0  0  0
 24 66  1  0  0  0  0
 24 67  1  0  0  0  0
 25 26  1  0  0  0  0
 25 68  1  0  0  0  0
 25 69  1  0  0  0  0
 26 27  2  0  0  0  0
 26 70  1  0  0  0  0
 27 28  1  0  0  0  0
 27 71  1  0  0  0  0
 28 29  1  0  0  0  0
 28 72  1  0  0  0  0
 28 73  1  0  0  0  0
 29 30  1  0  0  0  0
 29 74  1  0  0  0  0
 29 75  1  0  0  0  0
 30 31  1  0  0  0  0
 30 76  1  0  0  0  0
 30 77  1  0  0  0  0
 31 32  1  0  0  0  0
 31 78  1  0  0  0  0
 31 79  1  0  0  0  0
 32 33  1  0  0  0  0
 32 80  1  0  0  0  0
 32 81  1  0  0  0  0
 33 34  1  0  0  0  0
 33 82  1  0  0  0  0
 33 83  1  0  0  0  0
 34 35  1  0  0  0  0
 34 84  1  0  0  0  0
 34 85  1  0  0  0  0
 35 86  1  0  0  0  0
 35 87  1  0  0  0  0
 35 88  1  0  0  0  0
M  CHG  1   8  -1
M  END
$$$$