/media/chris/experiments/cd1a-new-docking/inputs/ligands/4x6c_ligand.pdb
 OpenBabel07012320263D

 88 87  0  0  1  0  0  0  0  0999 V2000
  -43.2597   63.2785   65.3701 N   0  0  0  0  0  4  0  0  0  0  0  0
  -38.5413   58.6255   68.7551 C   0  0  1  0  0  0  0  0  0  0  0  0
  -37.7471   58.9302   67.6086 O   0  0  0  0  0  0  0  0  0  0  0  0
  -39.9067   62.2601   69.1752 P   0  0  2  0  0  0  0  0  0  0  0  0
  -38.7986   59.9072   69.5098 C   0  0  0  0  0  0  0  0  0  0  0  0
  -39.5132   60.8132   68.6452 O   0  0  0  0  0  0  0  0  0  0  0  0
  -41.4322   62.7288   67.0920 C   0  0  0  0  0  0  0  0  0  0  0  0
  -40.0935   62.1500   70.6361 O   0  5  0  0  0  0  0  0  0  0  0  0
  -42.8596   63.1502   66.8265 C   0  0  0  0  0  0  0  0  0  0  0  0
  -41.3001   62.6614   68.5313 O   0  0  0  0  0  0  0  0  0  0  0  0
  -42.4073   64.2829   64.6635 C   0  0  0  0  0  0  0  0  0  0  0  0
  -38.8961   63.1979   68.6479 O   0  0  0  0  0  0  0  0  0  0  0  0
  -44.6868   63.7153   65.2801 C   0  0  0  0  0  0  0  0  0  0  0  0
  -40.4958   58.7329   67.4051 O   0  0  0  0  0  0  0  0  0  0  0  0
  -43.1044   61.9551   64.6890 C   0  0  0  0  0  0  0  0  0  0  0  0
  -38.7625   58.7468   66.0033 O   0  0  0  0  0  0  0  0  0  0  0  0
  -39.7816   57.8768   68.3244 C   0  0  0  0  0  0  0  0  0  0  0  0
  -39.8694   59.0915   66.2844 C   0  0  0  0  0  0  0  0  0  0  0  0
  -40.7200   59.9800   65.4370 C   0  0  0  0  0  0  0  0  0  0  0  0
  -42.0280   59.3300   65.0270 C   0  0  0  0  0  0  0  0  0  0  0  0
  -42.8960   58.9560   66.2090 C   0  0  0  0  0  0  0  0  0  0  0  0
  -43.3110   60.1221   67.0749 C   0  0  0  0  0  0  0  0  0  0  0  0
  -44.1610   59.7323   68.2572 C   0  0  0  0  0  0  0  0  0  0  0  0
  -44.5694   60.9198   69.0870 C   0  0  0  0  0  0  0  0  0  0  0  0
  -45.4051   60.6061   70.2926 C   0  0  0  0  0  0  0  0  0  0  0  0
  -45.7917   61.7989   71.0600 C   0  0  0  0  0  0  0  0  0  0  0  0
  -46.8799   61.9832   71.7744 C   0  0  0  0  0  0  0  0  0  0  0  0
  -47.9907   61.0268   72.0106 C   0  0  0  0  0  0  0  0  0  0  0  0
  -49.1290   61.0883   71.0127 C   0  0  0  0  0  0  0  0  0  0  0  0
  -48.6864   60.7888   69.6068 C   0  0  0  0  0  0  0  0  0  0  0  0
  -48.0917   59.4175   69.4128 C   0  0  0  0  0  0  0  0  0  0  0  0
  -49.0652   58.3088   69.7469 C   0  0  0  0  0  0  0  0  0  0  0  0
  -48.5194   56.9172   69.5872 C   0  0  0  0  0  0  0  0  0  0  0  0
  -48.0630   56.6257   68.2140 C   0  0  0  0  0  0  0  0  0  0  0  0
  -49.1176   56.7605   67.2111 C   0  0  0  0  0  0  0  0  0  0  0  0
  -38.0387   57.9698   69.4350 H   0  0  0  0  0  0  0  0  0  0  0  0
  -38.2404   59.5249   67.0223 H   0  0  0  0  0  0  0  0  0  0  0  0
  -37.8679   60.3465   69.8024 H   0  0  0  0  0  0  0  0  0  0  0  0
  -39.3771   59.7056   70.3870 H   0  0  0  0  0  0  0  0  0  0  0  0
  -40.7505   63.4484   66.6888 H   0  0  0  0  0  0  0  0  0  0  0  0
  -41.2079   61.7889   66.6323 H   0  0  0  0  0  0  0  0  0  0  0  0
  -43.5035   62.4254   67.2793 H   0  0  0  0  0  0  0  0  0  0  0  0
  -42.9483   64.1349   67.2357 H   0  0  0  0  0  0  0  0  0  0  0  0
  -42.5086   65.2353   65.1404 H   0  0  0  0  0  0  0  0  0  0  0  0
  -42.7189   64.3601   63.6428 H   0  0  0  0  0  0  0  0  0  0  0  0
  -41.3841   63.9720   64.7014 H   0  0  0  0  0  0  0  0  0  0  0  0
  -38.0277   62.9814   69.0221 H   0  0  0  0  0  0  0  0  0  0  0  0
  -44.8015   64.6615   65.7662 H   0  0  0  0  0  0  0  0  0  0  0  0
  -45.3124   62.9906   65.7579 H   0  0  0  0  0  0  0  0  0  0  0  0
  -44.9677   63.8063   64.2516 H   0  0  0  0  0  0  0  0  0  0  0  0
  -42.0839   61.6394   64.7516 H   0  0  0  0  0  0  0  0  0  0  0  0
  -43.3867   62.0477   63.6611 H   0  0  0  0  0  0  0  0  0  0  0  0
  -43.7314   61.2320   65.1674 H   0  0  0  0  0  0  0  0  0  0  0  0
  -40.3936   57.6600   69.1750 H   0  0  0  0  0  0  0  0  0  0  0  0
  -39.5242   56.9483   67.8591 H   0  0  0  0  0  0  0  0  0  0  0  0
  -40.1733   60.2341   64.5530 H   0  0  0  0  0  0  0  0  0  0  0  0
  -40.9602   60.8449   66.0193 H   0  0  0  0  0  0  0  0  0  0  0  0
  -41.8086   58.4429   64.4703 H   0  0  0  0  0  0  0  0  0  0  0  0
  -42.5713   60.0428   64.4426 H   0  0  0  0  0  0  0  0  0  0  0  0
  -42.3518   58.2646   66.8179 H   0  0  0  0  0  0  0  0  0  0  0  0
  -43.7960   58.5403   65.8064 H   0  0  0  0  0  0  0  0  0  0  0  0
  -43.8675   60.8086   66.4716 H   0  0  0  0  0  0  0  0  0  0  0  0
  -42.4135   60.5536   67.4661 H   0  0  0  0  0  0  0  0  0  0  0  0
  -43.6038   59.0579   68.8734 H   0  0  0  0  0  0  0  0  0  0  0  0
  -45.0523   59.2748   67.8815 H   0  0  0  0  0  0  0  0  0  0  0  0
  -45.1291   61.5829   68.4610 H   0  0  0  0  0  0  0  0  0  0  0  0
  -43.6612   61.3446   69.4605 H   0  0  0  0  0  0  0  0  0  0  0  0
  -44.8459   59.9568   70.9334 H   0  0  0  0  0  0  0  0  0  0  0  0
  -46.3070   60.1493   69.9423 H   0  0  0  0  0  0  0  0  0  0  0  0
  -45.1275   62.5883   71.0349 H   0  0  0  0  0  0  0  0  0  0  0  0
  -46.9736   62.9062   72.2266 H   0  0  0  0  0  0  0  0  0  0  0  0
  -48.3935   61.2230   72.9823 H   0  0  0  0  0  0  0  0  0  0  0  0
  -47.5640   60.0508   71.9090 H   0  0  0  0  0  0  0  0  0  0  0  0
  -49.5519   62.0710   71.0362 H   0  0  0  0  0  0  0  0  0  0  0  0
  -49.8438   60.3427   71.2919 H   0  0  0  0  0  0  0  0  0  0  0  0
  -47.9507   61.5138   69.3274 H   0  0  0  0  0  0  0  0  0  0  0  0
  -49.5659   60.8258   68.9986 H   0  0  0  0  0  0  0  0  0  0  0  0
  -47.2343   59.3230   70.0459 H   0  0  0  0  0  0  0  0  0  0  0  0
  -47.8317   59.3201   68.3794 H   0  0  0  0  0  0  0  0  0  0  0  0
  -49.9152   58.4081   69.1045 H   0  0  0  0  0  0  0  0  0  0  0  0
  -49.3027   58.4206   70.7842 H   0  0  0  0  0  0  0  0  0  0  0  0
  -49.2878   56.2188   69.8457 H   0  0  0  0  0  0  0  0  0  0  0  0
  -47.6679   56.8339   70.2298 H   0  0  0  0  0  0  0  0  0  0  0  0
  -47.6937   55.6219   68.1852 H   0  0  0  0  0  0  0  0  0  0  0  0
  -47.3054   57.3422   67.9741 H   0  0  0  0  0  0  0  0  0  0  0  0
  -49.8976   56.0575   67.4171 H   0  0  0  0  0  0  0  0  0  0  0  0
  -48.7124   56.5690   66.2395 H   0  0  0  0  0  0  0  0  0  0  0  0
  -49.5149   57.7534   67.2425 H   0  0  0  0  0  0  0  0  0  0  0  0
  1  9  1  0  0  0  0
  1 11  1  0  0  0  0
  1 13  1  0  0  0  0
  1 15  1  0  0  0  0
  2  3  1  0  0  0  0
  2  5  1  0  0  0  0
  2 17  1  0  0  0  0
  2 36  1  1  0  0  0
  3 37  1  0  0  0  0
  4  6  1  0  0  0  0
  4  8  2  1  0  0  0
  4 10  1  0  0  0  0
  4 12  1  0  0  0  0
  5  6  1  0  0  0  0
  5 38  1  0  0  0  0
  5 39  1  0  0  0  0
  7  9  1  0  0  0  0
  7 10  1  0  0  0  0
  7 40  1  0  0  0  0
  7 41  1  0  0  0  0
  9 42  1  0  0  0  0
  9 43  1  0  0  0  0
 11 44  1  0  0  0  0
 11 45  1  0  0  0  0
 11 46  1  0  0  0  0
 12 47  1  0  0  0  0
 13 48  1  0  0  0  0
 13 49  1  0  0  0  0
 13 50  1  0  0  0  0
 14 17  1  0  0  0  0
 14 18  1  0  0  0  0
 15 51  1  0  0  0  0
 15 52  1  0  0  0  0
 15 53  1  0  0  0  0
 16 18  2  0  0  0  0
 17 54  1  0  0  0  0
 17 55  1  0  0  0  0
 18 19  1  0  0  0  0
 19 20  1  0  0  0  0
 19 56  1  0  0  0  0
 19 57  1  0  0  0  0
 20 21  1  0  0  0  0
 20 58  1  0  0  0  0
 20 59  1  0  0  0  0
 21 22  1  0  0  0  0
 21 60  1  0  0  0  0
 21 61  1  0  0  0  0
 22 23  1  0  0  0  0
 22 62  1  0  0  0  0
 22 63  1  0  0  0  0
 23 24  1  0  0  0  0
 23 64  1  0  0  0  0
 23 65  1  0  0  0  0
 24 25  1  0  0  0  0
 24 66  1  0  0  0  0
 24 67  1  0  0  0  0
 25 26  1  0  0  0  0
 25 68  1  0  0  0  0
 25 69  1  0  0  0  0
 26 27  2  0  0  0  0
 26 70  1  0  0  0  0
 27 28  1  0  0  0  0
 27 71  1  0  0  0  0
 28 29  1  0  0  0  0
 28 72  1  0  0  0  0
 28 73  1  0  0  0  0
 29 30  1  0  0  0  0
 29 74  1  0  0  0  0
 29 75  1  0  0  0  0
 30 31  1  0  0  0  0
 30 76  1  0  0  0  0
 30 77  1  0  0  0  0
 31 32  1  0  0  0  0
 31 78  1  0  0  0  0
 31 79  1  0  0  0  0
 32 33  1  0  0  0  0
 32 80  1  0  0  0  0
 32 81  1  0  0  0  0
 33 34  1  0  0  0  0
 33 82  1  0  0  0  0
 33 83  1  0  0  0  0
 34 35  1  0  0  0  0
 34 84  1  0  0  0  0
 34 85  1  0  0  0  0
 35 86  1  0  0  0  0
 35 87  1  0  0  0  0
 35 88  1  0  0  0  0
M  CHG  1   8  -1
M  END
$$$$