/media/chris/experiments/cd1a-new-docking/inputs/ligands/4x6c_ligand.pdb
 OpenBabel07012320263D

 88 87  0  0  1  0  0  0  0  0999 V2000
  -48.0803   65.0281   64.2721 N   0  0  0  0  0  4  0  0  0  0  0  0
  -42.5438   63.0786   67.9971 C   0  0  1  0  0  0  0  0  0  0  0  0
  -41.7723   63.7475   66.9994 O   0  0  0  0  0  0  0  0  0  0  0  0
  -45.8682   64.9360   67.1317 P   0  0  2  0  0  0  0  0  0  0  0  0
  -43.7546   63.9243   68.3085 C   0  0  0  0  0  0  0  0  0  0  0  0
  -44.5333   64.0720   67.1041 O   0  0  0  0  0  0  0  0  0  0  0  0
  -48.4314   64.5089   66.7649 C   0  0  0  0  0  0  0  0  0  0  0  0
  -46.0285   65.4412   68.5102 O   0  5  0  0  0  0  0  0  0  0  0  0
  -48.4228   65.5383   65.6578 C   0  0  0  0  0  0  0  0  0  0  0  0
  -47.0886   63.9722   66.8174 O   0  0  0  0  0  0  0  0  0  0  0  0
  -46.7228   64.4025   64.2484 C   0  0  0  0  0  0  0  0  0  0  0  0
  -45.7761   65.9007   66.0182 O   0  0  0  0  0  0  0  0  0  0  0  0
  -48.0993   66.1652   63.3015 C   0  0  0  0  0  0  0  0  0  0  0  0
  -41.5801   61.0002   67.3601 O   0  0  0  0  0  0  0  0  0  0  0  0
  -49.0869   64.0034   63.8522 C   0  0  0  0  0  0  0  0  0  0  0  0
  -40.5330   62.3105   65.8918 O   0  0  0  0  0  0  0  0  0  0  0  0
  -42.8476   61.6706   67.5391 C   0  0  0  0  0  0  0  0  0  0  0  0
  -40.9154   61.2318   66.2282 C   0  0  0  0  0  0  0  0  0  0  0  0
  -40.7200   59.9800   65.4370 C   0  0  0  0  0  0  0  0  0  0  0  0
  -42.0280   59.3300   65.0270 C   0  0  0  0  0  0  0  0  0  0  0  0
  -42.8960   58.9560   66.2090 C   0  0  0  0  0  0  0  0  0  0  0  0
  -44.2012   58.2902   65.8416 C   0  0  0  0  0  0  0  0  0  0  0  0
  -45.0623   57.9388   67.0279 C   0  0  0  0  0  0  0  0  0  0  0  0
  -45.4546   59.1497   67.8311 C   0  0  0  0  0  0  0  0  0  0  0  0
  -46.3003   58.8748   69.0392 C   0  0  0  0  0  0  0  0  0  0  0  0
  -46.6704   60.0893   69.7802 C   0  0  0  0  0  0  0  0  0  0  0  0
  -46.0217   60.6620   70.7700 C   0  0  0  0  0  0  0  0  0  0  0  0
  -44.7351   60.2443   71.3820 C   0  0  0  0  0  0  0  0  0  0  0  0
  -43.5434   60.2232   70.4467 C   0  0  0  0  0  0  0  0  0  0  0  0
  -42.2787   59.7756   71.1267 C   0  0  0  0  0  0  0  0  0  0  0  0
  -41.8568   60.6284   72.2957 C   0  0  0  0  0  0  0  0  0  0  0  0
  -41.6191   62.0711   71.9074 C   0  0  0  0  0  0  0  0  0  0  0  0
  -41.1793   62.9656   73.0326 C   0  0  0  0  0  0  0  0  0  0  0  0
  -42.1498   63.0224   74.1435 C   0  0  0  0  0  0  0  0  0  0  0  0
  -41.7340   63.9039   75.2327 C   0  0  0  0  0  0  0  0  0  0  0  0
  -42.0086   62.9660   68.9168 H   0  0  0  0  0  0  0  0  0  0  0  0
  -42.2948   63.8271   66.1860 H   0  0  0  0  0  0  0  0  0  0  0  0
  -43.4424   64.8868   68.6565 H   0  0  0  0  0  0  0  0  0  0  0  0
  -44.3428   63.4553   69.0695 H   0  0  0  0  0  0  0  0  0  0  0  0
  -49.1343   63.7324   66.5458 H   0  0  0  0  0  0  0  0  0  0  0  0
  -48.7189   64.9406   67.7008 H   0  0  0  0  0  0  0  0  0  0  0  0
  -49.3976   65.9771   65.6124 H   0  0  0  0  0  0  0  0  0  0  0  0
  -47.6421   66.2248   65.9112 H   0  0  0  0  0  0  0  0  0  0  0  0
  -45.9919   65.1247   64.5469 H   0  0  0  0  0  0  0  0  0  0  0  0
  -46.5041   64.0622   63.2578 H   0  0  0  0  0  0  0  0  0  0  0  0
  -46.7006   63.5726   64.9235 H   0  0  0  0  0  0  0  0  0  0  0  0
  -45.0372   66.5086   66.1774 H   0  0  0  0  0  0  0  0  0  0  0  0
  -47.3805   66.8999   63.5988 H   0  0  0  0  0  0  0  0  0  0  0  0
  -49.0744   66.6055   63.2871 H   0  0  0  0  0  0  0  0  0  0  0  0
  -47.8567   65.8038   62.3241 H   0  0  0  0  0  0  0  0  0  0  0  0
  -49.0759   63.1880   64.5449 H   0  0  0  0  0  0  0  0  0  0  0  0
  -48.8433   63.6440   62.8743 H   0  0  0  0  0  0  0  0  0  0  0  0
  -50.0611   64.4457   63.8373 H   0  0  0  0  0  0  0  0  0  0  0  0
  -43.3849   61.6933   66.6141 H   0  0  0  0  0  0  0  0  0  0  0  0
  -43.4519   61.1579   68.2581 H   0  0  0  0  0  0  0  0  0  0  0  0
  -40.1644   59.2843   66.0305 H   0  0  0  0  0  0  0  0  0  0  0  0
  -40.1985   60.2448   64.5410 H   0  0  0  0  0  0  0  0  0  0  0  0
  -41.8086   58.4429   64.4703 H   0  0  0  0  0  0  0  0  0  0  0  0
  -42.5713   60.0428   64.4426 H   0  0  0  0  0  0  0  0  0  0  0  0
  -43.1183   59.8483   66.7560 H   0  0  0  0  0  0  0  0  0  0  0  0
  -42.3406   58.2423   66.7808 H   0  0  0  0  0  0  0  0  0  0  0  0
  -43.9814   57.3901   65.3063 H   0  0  0  0  0  0  0  0  0  0  0  0
  -44.7539   58.9929   65.2537 H   0  0  0  0  0  0  0  0  0  0  0  0
  -44.5188   57.2683   67.6603 H   0  0  0  0  0  0  0  0  0  0  0  0
  -45.9594   57.4883   66.6576 H   0  0  0  0  0  0  0  0  0  0  0  0
  -46.0008   59.8088   67.1891 H   0  0  0  0  0  0  0  0  0  0  0  0
  -44.5411   59.5673   68.1999 H   0  0  0  0  0  0  0  0  0  0  0  0
  -45.7546   58.2298   69.6958 H   0  0  0  0  0  0  0  0  0  0  0  0
  -47.2081   58.4256   68.6943 H   0  0  0  0  0  0  0  0  0  0  0  0
  -47.5470   60.5486   69.4875 H   0  0  0  0  0  0  0  0  0  0  0  0
  -46.4608   61.5056   71.1708 H   0  0  0  0  0  0  0  0  0  0  0  0
  -44.8625   59.2576   71.7757 H   0  0  0  0  0  0  0  0  0  0  0  0
  -44.5113   60.9804   72.1256 H   0  0  0  0  0  0  0  0  0  0  0  0
  -43.3936   61.2099   70.0609 H   0  0  0  0  0  0  0  0  0  0  0  0
  -43.7568   59.5214   69.6677 H   0  0  0  0  0  0  0  0  0  0  0  0
  -41.4897   59.7867   70.4040 H   0  0  0  0  0  0  0  0  0  0  0  0
  -42.4756   58.8000   71.5196 H   0  0  0  0  0  0  0  0  0  0  0  0
  -40.9510   60.2291   72.7019 H   0  0  0  0  0  0  0  0  0  0  0  0
  -42.6513   60.6122   73.0122 H   0  0  0  0  0  0  0  0  0  0  0  0
  -42.5317   62.4626   71.5088 H   0  0  0  0  0  0  0  0  0  0  0  0
  -40.8167   62.0629   71.1996 H   0  0  0  0  0  0  0  0  0  0  0  0
  -41.0446   63.9549   72.6478 H   0  0  0  0  0  0  0  0  0  0  0  0
  -40.2704   62.5597   73.4249 H   0  0  0  0  0  0  0  0  0  0  0  0
  -42.2750   62.0347   74.5354 H   0  0  0  0  0  0  0  0  0  0  0  0
  -43.0612   63.4186   73.7469 H   0  0  0  0  0  0  0  0  0  0  0  0
  -40.8219   63.5400   75.6575 H   0  0  0  0  0  0  0  0  0  0  0  0
  -42.4946   63.9244   75.9850 H   0  0  0  0  0  0  0  0  0  0  0  0
  -41.5812   64.8925   74.8530 H   0  0  0  0  0  0  0  0  0  0  0  0
  1  9  1  0  0  0  0
  1 11  1  0  0  0  0
  1 13  1  0  0  0  0
  1 15  1  0  0  0  0
  2  3  1  0  0  0  0
  2  5  1  0  0  0  0
  2 17  1  0  0  0  0
  2 36  1  1  0  0  0
  3 37  1  0  0  0  0
  4  6  1  0  0  0  0
  4  8  2  1  0  0  0
  4 10  1  0  0  0  0
  4 12  1  0  0  0  0
  5  6  1  0  0  0  0
  5 38  1  0  0  0  0
  5 39  1  0  0  0  0
  7  9  1  0  0  0  0
  7 10  1  0  0  0  0
  7 40  1  0  0  0  0
  7 41  1  0  0  0  0
  9 42  1  0  0  0  0
  9 43  1  0  0  0  0
 11 44  1  0  0  0  0
 11 45  1  0  0  0  0
 11 46  1  0  0  0  0
 12 47  1  0  0  0  0
 13 48  1  0  0  0  0
 13 49  1  0  0  0  0
 13 50  1  0  0  0  0
 14 17  1  0  0  0  0
 14 18  1  0  0  0  0
 15 51  1  0  0  0  0
 15 52  1  0  0  0  0
 15 53  1  0  0  0  0
 16 18  2  0  0  0  0
 17 54  1  0  0  0  0
 17 55  1  0  0  0  0
 18 19  1  0  0  0  0
 19 20  1  0  0  0  0
 19 56  1  0  0  0  0
 19 57  1  0  0  0  0
 20 21  1  0  0  0  0
 20 58  1  0  0  0  0
 20 59  1  0  0  0  0
 21 22  1  0  0  0  0
 21 60  1  0  0  0  0
 21 61  1  0  0  0  0
 22 23  1  0  0  0  0
 22 62  1  0  0  0  0
 22 63  1  0  0  0  0
 23 24  1  0  0  0  0
 23 64  1  0  0  0  0
 23 65  1  0  0  0  0
 24 25  1  0  0  0  0
 24 66  1  0  0  0  0
 24 67  1  0  0  0  0
 25 26  1  0  0  0  0
 25 68  1  0  0  0  0
 25 69  1  0  0  0  0
 26 27  2  0  0  0  0
 26 70  1  0  0  0  0
 27 28  1  0  0  0  0
 27 71  1  0  0  0  0
 28 29  1  0  0  0  0
 28 72  1  0  0  0  0
 28 73  1  0  0  0  0
 29 30  1  0  0  0  0
 29 74  1  0  0  0  0
 29 75  1  0  0  0  0
 30 31  1  0  0  0  0
 30 76  1  0  0  0  0
 30 77  1  0  0  0  0
 31 32  1  0  0  0  0
 31 78  1  0  0  0  0
 31 79  1  0  0  0  0
 32 33  1  0  0  0  0
 32 80  1  0  0  0  0
 32 81  1  0  0  0  0
 33 34  1  0  0  0  0
 33 82  1  0  0  0  0
 33 83  1  0  0  0  0
 34 35  1  0  0  0  0
 34 84  1  0  0  0  0
 34 85  1  0  0  0  0
 35 86  1  0  0  0  0
 35 87  1  0  0  0  0
 35 88  1  0  0  0  0
M  CHG  1   8  -1
M  END
$$$$