/media/chris/experiments/cd1a-new-docking/inputs/ligands/4x6c_ligand.pdb
 OpenBabel07012320263D

 88 87  0  0  1  0  0  0  0  0999 V2000
  -41.3969   63.6199   69.2053 N   0  0  0  0  0  4  0  0  0  0  0  0
  -37.2027   57.9501   67.1659 C   0  0  1  0  0  0  0  0  0  0  0  0
  -35.9741   57.3234   66.7970 O   0  0  0  0  0  0  0  0  0  0  0  0
  -38.5549   59.4927   70.4890 P   0  0  2  0  0  0  0  0  0  0  0  0
  -37.1186   58.3420   68.6211 C   0  0  0  0  0  0  0  0  0  0  0  0
  -38.3639   58.9605   69.0025 O   0  0  0  0  0  0  0  0  0  0  0  0
  -40.1481   61.4361   69.7331 C   0  0  0  0  0  0  0  0  0  0  0  0
  -39.6998   58.7605   71.0671 O   0  5  0  0  0  0  0  0  0  0  0  0
  -40.1987   62.9432   69.8411 C   0  0  0  0  0  0  0  0  0  0  0  0
  -38.9405   61.0300   70.4190 O   0  0  0  0  0  0  0  0  0  0  0  0
  -42.6728   63.1567   69.8318 C   0  0  0  0  0  0  0  0  0  0  0  0
  -37.2369   59.4029   71.1478 O   0  0  0  0  0  0  0  0  0  0  0  0
  -41.4369   63.2981   67.7458 C   0  0  0  0  0  0  0  0  0  0  0  0
  -38.7345   59.6918   66.6427 O   0  0  0  0  0  0  0  0  0  0  0  0
  -41.2876   65.1019   69.3815 C   0  0  0  0  0  0  0  0  0  0  0  0
  -40.1597   57.9783   66.5999 O   0  0  0  0  0  0  0  0  0  0  0  0
  -37.4946   59.0865   66.2132 C   0  0  0  0  0  0  0  0  0  0  0  0
  -39.8694   59.0915   66.2844 C   0  0  0  0  0  0  0  0  0  0  0  0
  -40.7200   59.9800   65.4370 C   0  0  0  0  0  0  0  0  0  0  0  0
  -42.0280   59.3300   65.0270 C   0  0  0  0  0  0  0  0  0  0  0  0
  -42.8960   58.9560   66.2090 C   0  0  0  0  0  0  0  0  0  0  0  0
  -44.2012   58.2902   65.8416 C   0  0  0  0  0  0  0  0  0  0  0  0
  -45.0623   57.9388   67.0279 C   0  0  0  0  0  0  0  0  0  0  0  0
  -46.3454   57.2626   66.6256 C   0  0  0  0  0  0  0  0  0  0  0  0
  -47.2342   58.0573   65.7153 C   0  0  0  0  0  0  0  0  0  0  0  0
  -48.4809   57.3616   65.3648 C   0  0  0  0  0  0  0  0  0  0  0  0
  -48.7016   56.5623   64.3445 C   0  0  0  0  0  0  0  0  0  0  0  0
  -47.7431   56.1362   63.2936 C   0  0  0  0  0  0  0  0  0  0  0  0
  -47.9852   54.7601   62.7079 C   0  0  0  0  0  0  0  0  0  0  0  0
  -47.9358   53.6706   63.7436 C   0  0  0  0  0  0  0  0  0  0  0  0
  -46.6282   53.5668   64.4861 C   0  0  0  0  0  0  0  0  0  0  0  0
  -46.6241   52.4467   65.5029 C   0  0  0  0  0  0  0  0  0  0  0  0
  -45.3486   52.3070   66.2862 C   0  0  0  0  0  0  0  0  0  0  0  0
  -45.0175   53.5086   67.0772 C   0  0  0  0  0  0  0  0  0  0  0  0
  -46.0334   53.8462   68.0723 C   0  0  0  0  0  0  0  0  0  0  0  0
  -38.0387   57.2880   67.0787 H   0  0  0  0  0  0  0  0  0  0  0  0
  -35.2465   57.9579   66.8910 H   0  0  0  0  0  0  0  0  0  0  0  0
  -36.3143   59.0334   68.7625 H   0  0  0  0  0  0  0  0  0  0  0  0
  -36.9404   57.4760   69.2237 H   0  0  0  0  0  0  0  0  0  0  0  0
  -40.1113   61.1375   68.7063 H   0  0  0  0  0  0  0  0  0  0  0  0
  -41.0161   60.9818   70.1634 H   0  0  0  0  0  0  0  0  0  0  0  0
  -40.1945   63.1963   70.8808 H   0  0  0  0  0  0  0  0  0  0  0  0
  -39.3479   63.2979   69.2979 H   0  0  0  0  0  0  0  0  0  0  0  0
  -42.7643   62.0973   69.7132 H   0  0  0  0  0  0  0  0  0  0  0  0
  -43.4999   63.6416   69.3567 H   0  0  0  0  0  0  0  0  0  0  0  0
  -42.6673   63.3999   70.8738 H   0  0  0  0  0  0  0  0  0  0  0  0
  -36.9682   58.4728   71.2080 H   0  0  0  0  0  0  0  0  0  0  0  0
  -41.5151   62.2388   67.6161 H   0  0  0  0  0  0  0  0  0  0  0  0
  -40.5409   63.6495   67.2784 H   0  0  0  0  0  0  0  0  0  0  0  0
  -42.2835   63.7756   67.2984 H   0  0  0  0  0  0  0  0  0  0  0  0
  -41.2587   65.3358   70.4252 H   0  0  0  0  0  0  0  0  0  0  0  0
  -42.1343   65.5778   68.9326 H   0  0  0  0  0  0  0  0  0  0  0  0
  -40.3917   65.4517   68.9126 H   0  0  0  0  0  0  0  0  0  0  0  0
  -37.5946   58.7129   65.2156 H   0  0  0  0  0  0  0  0  0  0  0  0
  -36.6992   59.8022   66.2183 H   0  0  0  0  0  0  0  0  0  0  0  0
  -40.1733   60.2341   64.5530 H   0  0  0  0  0  0  0  0  0  0  0  0
  -40.9602   60.8449   66.0193 H   0  0  0  0  0  0  0  0  0  0  0  0
  -41.8086   58.4429   64.4703 H   0  0  0  0  0  0  0  0  0  0  0  0
  -42.5713   60.0428   64.4426 H   0  0  0  0  0  0  0  0  0  0  0  0
  -43.1183   59.8483   66.7560 H   0  0  0  0  0  0  0  0  0  0  0  0
  -42.3406   58.2423   66.7808 H   0  0  0  0  0  0  0  0  0  0  0  0
  -43.9814   57.3901   65.3063 H   0  0  0  0  0  0  0  0  0  0  0  0
  -44.7539   58.9929   65.2537 H   0  0  0  0  0  0  0  0  0  0  0  0
  -45.2991   58.8372   67.5587 H   0  0  0  0  0  0  0  0  0  0  0  0
  -44.5114   57.2554   67.6397 H   0  0  0  0  0  0  0  0  0  0  0  0
  -46.8964   57.0438   67.5164 H   0  0  0  0  0  0  0  0  0  0  0  0
  -46.0590   56.3928   66.0721 H   0  0  0  0  0  0  0  0  0  0  0  0
  -46.6970   58.2660   64.8138 H   0  0  0  0  0  0  0  0  0  0  0  0
  -47.5065   58.9498   66.2390 H   0  0  0  0  0  0  0  0  0  0  0  0
  -49.2809   57.5200   65.9971 H   0  0  0  0  0  0  0  0  0  0  0  0
  -49.6586   56.1846   64.2642 H   0  0  0  0  0  0  0  0  0  0  0  0
  -46.7617   56.1450   63.7197 H   0  0  0  0  0  0  0  0  0  0  0  0
  -47.8690   56.8255   62.4850 H   0  0  0  0  0  0  0  0  0  0  0  0
  -47.2349   54.5654   61.9704 H   0  0  0  0  0  0  0  0  0  0  0  0
  -48.9675   54.7580   62.2838 H   0  0  0  0  0  0  0  0  0  0  0  0
  -48.1160   52.7366   63.2537 H   0  0  0  0  0  0  0  0  0  0  0  0
  -48.6795   53.9134   64.4735 H   0  0  0  0  0  0  0  0  0  0  0  0
  -46.4481   54.4913   64.9939 H   0  0  0  0  0  0  0  0  0  0  0  0
  -45.8636   53.3556   63.7681 H   0  0  0  0  0  0  0  0  0  0  0  0
  -46.7983   51.5269   64.9847 H   0  0  0  0  0  0  0  0  0  0  0  0
  -47.3880   52.6839   66.2136 H   0  0  0  0  0  0  0  0  0  0  0  0
  -44.5480   52.1192   65.6016 H   0  0  0  0  0  0  0  0  0  0  0  0
  -45.4855   51.5002   66.9756 H   0  0  0  0  0  0  0  0  0  0  0  0
  -44.9101   54.3364   66.4078 H   0  0  0  0  0  0  0  0  0  0  0  0
  -44.1128   53.2979   67.6082 H   0  0  0  0  0  0  0  0  0  0  0  0
  -46.9574   54.0645   67.5789 H   0  0  0  0  0  0  0  0  0  0  0  0
  -45.7158   54.7025   68.6298 H   0  0  0  0  0  0  0  0  0  0  0  0
  -46.1707   53.0188   68.7368 H   0  0  0  0  0  0  0  0  0  0  0  0
  1  9  1  0  0  0  0
  1 11  1  0  0  0  0
  1 13  1  0  0  0  0
  1 15  1  0  0  0  0
  2  3  1  0  0  0  0
  2  5  1  0  0  0  0
  2 17  1  0  0  0  0
  2 36  1  6  0  0  0
  3 37  1  0  0  0  0
  4  6  1  0  0  0  0
  4  8  2  1  0  0  0
  4 10  1  0  0  0  0
  4 12  1  0  0  0  0
  5  6  1  0  0  0  0
  5 38  1  0  0  0  0
  5 39  1  0  0  0  0
  7  9  1  0  0  0  0
  7 10  1  0  0  0  0
  7 40  1  0  0  0  0
  7 41  1  0  0  0  0
  9 42  1  0  0  0  0
  9 43  1  0  0  0  0
 11 44  1  0  0  0  0
 11 45  1  0  0  0  0
 11 46  1  0  0  0  0
 12 47  1  0  0  0  0
 13 48  1  0  0  0  0
 13 49  1  0  0  0  0
 13 50  1  0  0  0  0
 14 17  1  0  0  0  0
 14 18  1  0  0  0  0
 15 51  1  0  0  0  0
 15 52  1  0  0  0  0
 15 53  1  0  0  0  0
 16 18  2  0  0  0  0
 17 54  1  0  0  0  0
 17 55  1  0  0  0  0
 18 19  1  0  0  0  0
 19 20  1  0  0  0  0
 19 56  1  0  0  0  0
 19 57  1  0  0  0  0
 20 21  1  0  0  0  0
 20 58  1  0  0  0  0
 20 59  1  0  0  0  0
 21 22  1  0  0  0  0
 21 60  1  0  0  0  0
 21 61  1  0  0  0  0
 22 23  1  0  0  0  0
 22 62  1  0  0  0  0
 22 63  1  0  0  0  0
 23 24  1  0  0  0  0
 23 64  1  0  0  0  0
 23 65  1  0  0  0  0
 24 25  1  0  0  0  0
 24 66  1  0  0  0  0
 24 67  1  0  0  0  0
 25 26  1  0  0  0  0
 25 68  1  0  0  0  0
 25 69  1  0  0  0  0
 26 27  2  0  0  0  0
 26 70  1  0  0  0  0
 27 28  1  0  0  0  0
 27 71  1  0  0  0  0
 28 29  1  0  0  0  0
 28 72  1  0  0  0  0
 28 73  1  0  0  0  0
 29 30  1  0  0  0  0
 29 74  1  0  0  0  0
 29 75  1  0  0  0  0
 30 31  1  0  0  0  0
 30 76  1  0  0  0  0
 30 77  1  0  0  0  0
 31 32  1  0  0  0  0
 31 78  1  0  0  0  0
 31 79  1  0  0  0  0
 32 33  1  0  0  0  0
 32 80  1  0  0  0  0
 32 81  1  0  0  0  0
 33 34  1  0  0  0  0
 33 82  1  0  0  0  0
 33 83  1  0  0  0  0
 34 35  1  0  0  0  0
 34 84  1  0  0  0  0
 34 85  1  0  0  0  0
 35 86  1  0  0  0  0
 35 87  1  0  0  0  0
 35 88  1  0  0  0  0
M  CHG  1   8  -1
M  END
$$$$